70602807
  -OEChem-04152518132D

 47 50  0     1  0  0  0  0  0999 V2000
    5.0297   -2.3211    0.0000 S   0  0  0  0  0  0  0  0  0  0  0  0
    4.1636    0.9109    0.0000 S   0  0  0  0  0  0  0  0  0  0  0  0
   11.0240   -3.3596    0.0000 S   0  0  0  0  0  0  0  0  0  0  0  0
    7.6096   -0.1084    0.0000 O   0  0  0  0  0  0  0  0  0  0  0  0
    2.6636   -1.6872    0.0000 O   0  0  0  0  0  0  0  0  0  0  0  0
    2.6636    0.0449    0.0000 O   0  0  0  0  0  0  0  0  0  0  0  0
    8.8369   -1.3116    0.0000 O   0  0  0  0  0  0  0  0  0  0  0  0
    5.8957   -0.8211    0.0000 N   0  0  0  0  0  0  0  0  0  0  0  0
    7.6096   -2.5338    0.0000 N   0  0  0  0  0  0  0  0  0  0  0  0
    2.6691    1.8815    0.0000 N   0  0  0  0  0  0  0  0  0  0  0  0
    4.0704    2.6905    0.0000 N   0  0  0  0  0  0  0  0  0  0  0  0
    2.4612    2.8596    0.0000 N   0  0  0  0  0  0  0  0  0  0  0  0
    3.3272    3.3596    0.0000 N   0  0  0  0  0  0  0  0  0  0  0  0
    5.8957   -1.8211    0.0000 C   0  0  1  0  0  0  0  0  0  0  0  0
    4.1636   -0.8211    0.0000 C   0  0  3  0  0  0  0  0  0  0  0  0
    6.9040   -1.8253    0.0000 C   0  0  3  0  0  0  0  0  0  0  0  0
    5.0297   -0.3211    0.0000 C   0  0  0  0  0  0  0  0  0  0  0  0
    6.9040   -0.8170    0.0000 C   0  0  0  0  0  0  0  0  0  0  0  0
    4.1636   -1.8211    0.0000 C   0  0  0  0  0  0  0  0  0  0  0  0
    3.6636    0.0449    0.0000 C   0  0  0  0  0  0  0  0  0  0  0  0
    3.1636   -0.8211    0.0000 C   0  0  0  0  0  0  0  0  0  0  0  0
    8.5761   -2.2770    0.0000 C   0  0  0  0  0  0  0  0  0  0  0  0
    9.2817   -2.9856    0.0000 C   0  0  0  0  0  0  0  0  0  0  0  0
    3.6636    1.7770    0.0000 C   0  0  0  0  0  0  0  0  0  0  0  0
   10.2482   -2.7287    0.0000 C   0  0  0  0  0  0  0  0  0  0  0  0
   10.6085   -1.7959    0.0000 C   0  0  0  0  0  0  0  0  0  0  0  0
    2.0000    1.1383    0.0000 C   0  0  0  0  0  0  0  0  0  0  0  0
   11.6070   -1.8503    0.0000 C   0  0  0  0  0  0  0  0  0  0  0  0
   11.8638   -2.8167    0.0000 C   0  0  0  0  0  0  0  0  0  0  0  0
    6.1140   -2.6426    0.0000 H   0  0  0  0  0  0  0  0  0  0  0  0
    7.4770   -1.5886    0.0000 H   0  0  0  0  0  0  0  0  0  0  0  0
    5.4282    0.1538    0.0000 H   0  0  0  0  0  0  0  0  0  0  0  0
    4.6312    0.1538    0.0000 H   0  0  0  0  0  0  0  0  0  0  0  0
    3.5531   -1.7135    0.0000 H   0  0  0  0  0  0  0  0  0  0  0  0
    3.9516   -2.4037    0.0000 H   0  0  0  0  0  0  0  0  0  0  0  0
    3.1887    0.4434    0.0000 H   0  0  0  0  0  0  0  0  0  0  0  0
    3.1887   -0.3536    0.0000 H   0  0  0  0  0  0  0  0  0  0  0  0
    7.4479   -3.1324    0.0000 H   0  0  0  0  0  0  0  0  0  0  0  0
    2.0436   -1.6872    0.0000 H   0  0  0  0  0  0  0  0  0  0  0  0
    8.7731   -3.3401    0.0000 H   0  0  0  0  0  0  0  0  0  0  0  0
    9.5426   -3.5480    0.0000 H   0  0  0  0  0  0  0  0  0  0  0  0
   10.2719   -1.2752    0.0000 H   0  0  0  0  0  0  0  0  0  0  0  0
    1.5392    1.5532    0.0000 H   0  0  0  0  0  0  0  0  0  0  0  0
    1.5851    0.6776    0.0000 H   0  0  0  0  0  0  0  0  0  0  0  0
    2.4608    0.7235    0.0000 H   0  0  0  0  0  0  0  0  0  0  0  0
   11.9982   -1.3692    0.0000 H   0  0  0  0  0  0  0  0  0  0  0  0
   12.4422   -3.0401    0.0000 H   0  0  0  0  0  0  0  0  0  0  0  0
  1 14  1  0  0  0  0
  1 19  1  0  0  0  0
  2 20  1  0  0  0  0
  2 24  1  0  0  0  0
  3 25  1  0  0  0  0
  3 29  1  0  0  0  0
  4 18  2  0  0  0  0
  5 21  1  0  0  0  0
  5 39  1  0  0  0  0
  6 21  2  0  0  0  0
  7 22  2  0  0  0  0
  8 14  1  0  0  0  0
  8 17  1  0  0  0  0
  8 18  1  0  0  0  0
  9 16  1  0  0  0  0
  9 22  1  0  0  0  0
  9 38  1  0  0  0  0
 10 12  1  0  0  0  0
 10 24  1  0  0  0  0
 10 27  1  0  0  0  0
 11 13  1  0  0  0  0
 11 24  2  0  0  0  0
 12 13  2  0  0  0  0
 14 16  1  0  0  0  0
 14 30  1  6  0  0  0
 15 17  1  0  0  0  0
 15 19  1  0  0  0  0
 15 20  1  0  0  0  0
 15 21  1  0  0  0  0
 16 18  1  0  0  0  0
 16 31  1  0  0  0  0
 17 32  1  0  0  0  0
 17 33  1  0  0  0  0
 19 34  1  0  0  0  0
 19 35  1  0  0  0  0
 20 36  1  0  0  0  0
 20 37  1  0  0  0  0
 22 23  1  0  0  0  0
 23 25  1  0  0  0  0
 23 40  1  0  0  0  0
 23 41  1  0  0  0  0
 25 26  2  0  0  0  0
 26 28  1  0  0  0  0
 26 42  1  0  0  0  0
 27 43  1  0  0  0  0
 27 44  1  0  0  0  0
 27 45  1  0  0  0  0
 28 29  2  0  0  0  0
 28 46  1  0  0  0  0
 29 47  1  0  0  0  0
M  END
> <PUBCHEM_COMPOUND_CID>
70602807

> <PUBCHEM_COMPOUND_CANONICALIZED>
1

> <PUBCHEM_CACTVS_COMPLEXITY>
687

> <PUBCHEM_CACTVS_HBOND_ACCEPTOR>
10

> <PUBCHEM_CACTVS_HBOND_DONOR>
2

> <PUBCHEM_CACTVS_ROTATABLE_BOND>
7

> <PUBCHEM_CACTVS_SUBSKEYS>
AAADceB7uABgAAAAAAAAAAAAAABYAWJAAAAsAAAAAAAWAAAB4AAAHgQYCAAADijF0ASzGYfIAgiuACHSPAADEINgiJBNyJmIAIiIYDqglTGUQAAilgCoiAcYCAAAAAAAAAAAAAAAAAAAAAAAAAAAAAAAAA==

> <PUBCHEM_IUPAC_OPENEYE_NAME>
(6R)-3-[(1-methyltetrazol-5-yl)sulfanylmethyl]-8-oxo-7-[[2-(2-thienyl)acetyl]amino]-5-thia-1-azabicyclo[4.2.0]octane-3-carboxylic acid

> <PUBCHEM_IUPAC_CAS_NAME>
(6R)-3-[[(1-methyl-5-tetrazolyl)thio]methyl]-8-oxo-7-[(1-oxo-2-thiophen-2-ylethyl)amino]-5-thia-1-azabicyclo[4.2.0]octane-3-carboxylic acid

> <PUBCHEM_IUPAC_NAME_MARKUP>
(6<I>R</I>)-3-[(1-methyltetrazol-5-yl)sulfanylmethyl]-8-oxo-7-[(2-thiophen-2-ylacetyl)amino]-5-thia-1-azabicyclo[4.2.0]octane-3-carboxylic acid

> <PUBCHEM_IUPAC_NAME>
(6R)-3-[(1-methyltetrazol-5-yl)sulfanylmethyl]-8-oxo-7-[(2-thiophen-2-ylacetyl)amino]-5-thia-1-azabicyclo[4.2.0]octane-3-carboxylic acid

> <PUBCHEM_IUPAC_SYSTEMATIC_NAME>
(6R)-3-[(1-methyl-1,2,3,4-tetrazol-5-yl)sulfanylmethyl]-8-oxidanylidene-7-(2-thiophen-2-ylethanoylamino)-5-thia-1-azabicyclo[4.2.0]octane-3-carboxylic acid

> <PUBCHEM_IUPAC_TRADITIONAL_NAME>
(6R)-8-keto-3-[[(1-methyltetrazol-5-yl)thio]methyl]-7-[[2-(2-thienyl)acetyl]amino]-5-thia-1-azabicyclo[4.2.0]octane-3-carboxylic acid

> <PUBCHEM_IUPAC_INCHI>
InChI=1S/C16H18N6O4S3/c1-21-15(18-19-20-21)29-8-16(14(25)26)6-22-12(24)11(13(22)28-7-16)17-10(23)5-9-3-2-4-27-9/h2-4,11,13H,5-8H2,1H3,(H,17,23)(H,25,26)/t11?,13-,16?/m1/s1

> <PUBCHEM_IUPAC_INCHIKEY>
AYXJHQJGBCARER-RYCVTPFZSA-N

> <PUBCHEM_XLOGP3_AA>
0.3

> <PUBCHEM_EXACT_MASS>
454.05516660

> <PUBCHEM_MOLECULAR_FORMULA>
C16H18N6O4S3

> <PUBCHEM_MOLECULAR_WEIGHT>
454.6

> <PUBCHEM_SMILES>
CN1C(=NN=N1)SCC2(CN3[C@@H](C(C3=O)NC(=O)CC4=CC=CS4)SC2)C(=O)O

> <PUBCHEM_OPENEYE_CAN_SMILES>
CN1C(=NN=N1)SCC2(CN3C(C(C3=O)NC(=O)CC4=CC=CS4)SC2)C(=O)O

> <PUBCHEM_OPENEYE_ISO_SMILES>
CN1C(=NN=N1)SCC2(CN3[C@@H](C(C3=O)NC(=O)CC4=CC=CS4)SC2)C(=O)O

> <PUBCHEM_CACTVS_TPSA>
209

> <PUBCHEM_MONOISOTOPIC_WEIGHT>
454.05516660

> <PUBCHEM_TOTAL_CHARGE>
0

> <PUBCHEM_HEAVY_ATOM_COUNT>
29

> <PUBCHEM_ATOM_DEF_STEREO_COUNT>
1

> <PUBCHEM_ATOM_UDEF_STEREO_COUNT>
2

> <PUBCHEM_BOND_DEF_STEREO_COUNT>
0

> <PUBCHEM_BOND_UDEF_STEREO_COUNT>
0

> <PUBCHEM_ISOTOPIC_ATOM_COUNT>
0

> <PUBCHEM_COMPONENT_COUNT>
1

> <PUBCHEM_CACTVS_TAUTO_COUNT>
-1

> <PUBCHEM_COORDINATE_TYPE>
1
5
255

> <PUBCHEM_BONDANNOTATIONS>
10  12  8
10  24  8
11  13  8
11  24  8
12  13  8
14  30  6
15  20  3
25  26  8
26  28  8
28  29  8
3  25  8
3  29  8
16  9  3

$$$$
