70540064
  -OEChem-04152518093D

 49 51  0     1  0  0  0  0  0999 V2000
   -2.5073    2.0143    1.2066 S   0  0  0  0  0  0  0  0  0  0  0  0
    0.9910   -1.3660   -0.6564 S   0  0  0  0  0  0  0  0  0  0  0  0
    0.8644    3.9501   -0.9939 S   0  0  0  0  0  0  0  0  0  0  0  0
   -0.2052    1.6270   -0.1404 O   0  0  0  0  0  0  0  0  0  0  0  0
   -5.5632   -1.1475   -0.3029 O   0  0  0  0  0  0  0  0  0  0  0  0
   -2.9322   -2.6894   -1.1629 O   0  0  0  0  0  0  0  0  0  0  0  0
   -2.5169   -3.1572    1.0369 O   0  0  0  0  0  0  0  0  0  0  0  0
    2.5450    3.7405    2.2419 O   0  0  0  0  0  0  0  0  0  0  0  0
   -3.4524   -0.1249   -0.0487 N   0  0  0  0  0  0  0  0  0  0  0  0
    1.9385    2.1191    0.6867 N   0  0  0  0  0  0  0  0  0  0  0  0
    3.3969   -2.7375   -0.9777 N   0  0  0  0  0  0  0  0  0  0  0  0
    2.6156   -2.8809    1.0402 N   0  0  0  0  0  0  0  0  0  0  0  0
    4.2837   -3.4874   -0.3088 N   0  0  0  0  0  0  0  0  0  0  0  0
    3.8008   -3.5715    0.9248 N   0  0  0  0  0  0  0  0  0  0  0  0
   -3.3528    1.3118   -0.2275 C   0  0  1  0  0  0  0  0  0  0  0  0
   -4.8965    1.3273   -0.1891 C   0  0  0  0  0  0  0  0  0  0  0  0
   -4.7878   -0.2236   -0.2275 C   0  0  0  0  0  0  0  0  0  0  0  0
   -2.3912   -0.9296    0.2167 C   0  0  0  0  0  0  0  0  0  0  0  0
   -0.9744    1.0606    0.9166 C   0  0  2  0  0  0  0  0  0  0  0  0
   -1.2009   -0.4237    0.6204 C   0  0  0  0  0  0  0  0  0  0  0  0
    0.0380   -1.2550    0.8660 C   0  0  0  0  0  0  0  0  0  0  0  0
   -2.6129   -2.3796    0.1091 C   0  0  0  0  0  0  0  0  0  0  0  0
    0.6515    2.6776    0.3054 C   0  0  1  0  0  0  0  0  0  0  0  0
    2.3845   -2.3728   -0.1484 C   0  0  0  0  0  0  0  0  0  0  0  0
    1.5874    2.9374   -2.3104 C   0  0  0  0  0  0  0  0  0  0  0  0
    2.7730    2.7035    1.6246 C   0  0  0  0  0  0  0  0  0  0  0  0
    1.8678    3.7816   -3.5390 C   0  0  0  0  0  0  0  0  0  0  0  0
    4.0513    1.9315    1.8093 C   0  0  0  0  0  0  0  0  0  0  0  0
    3.6042   -2.4356   -2.3715 C   0  0  0  0  0  0  0  0  0  0  0  0
   -2.9317    1.5901   -1.2009 H   0  0  0  0  0  0  0  0  0  0  0  0
   -5.3749    1.7614   -1.0710 H   0  0  0  0  0  0  0  0  0  0  0  0
   -5.3742    1.7077    0.7185 H   0  0  0  0  0  0  0  0  0  0  0  0
   -0.4228    1.1238    1.8636 H   0  0  0  0  0  0  0  0  0  0  0  0
   -0.2094   -2.2638    1.2067 H   0  0  0  0  0  0  0  0  0  0  0  0
    0.6530   -0.8143    1.6585 H   0  0  0  0  0  0  0  0  0  0  0  0
    0.2261    3.2049    1.1667 H   0  0  0  0  0  0  0  0  0  0  0  0
    2.2370    1.2718    0.2132 H   0  0  0  0  0  0  0  0  0  0  0  0
   -3.0891   -3.6506   -1.2805 H   0  0  0  0  0  0  0  0  0  0  0  0
    2.5236    2.4910   -1.9621 H   0  0  0  0  0  0  0  0  0  0  0  0
    0.8948    2.1319   -2.5732 H   0  0  0  0  0  0  0  0  0  0  0  0
    0.9505    4.2273   -3.9388 H   0  0  0  0  0  0  0  0  0  0  0  0
    2.5795    4.5852   -3.3211 H   0  0  0  0  0  0  0  0  0  0  0  0
    2.3035    3.1591   -4.3277 H   0  0  0  0  0  0  0  0  0  0  0  0
    4.7070    2.1047    0.9517 H   0  0  0  0  0  0  0  0  0  0  0  0
    3.8419    0.8614    1.8971 H   0  0  0  0  0  0  0  0  0  0  0  0
    4.5536    2.2646    2.7216 H   0  0  0  0  0  0  0  0  0  0  0  0
    2.7677   -2.8442   -2.9433 H   0  0  0  0  0  0  0  0  0  0  0  0
    4.5391   -2.8908   -2.7090 H   0  0  0  0  0  0  0  0  0  0  0  0
    3.6605   -1.3504   -2.4873 H   0  0  0  0  0  0  0  0  0  0  0  0
  1 15  1  0  0  0  0
  1 19  1  0  0  0  0
  2 21  1  0  0  0  0
  2 24  1  0  0  0  0
  3 23  1  0  0  0  0
  3 25  1  0  0  0  0
  4 19  1  0  0  0  0
  4 23  1  0  0  0  0
  5 17  2  0  0  0  0
  6 22  1  0  0  0  0
  6 38  1  0  0  0  0
  7 22  2  0  0  0  0
  8 26  2  0  0  0  0
  9 15  1  0  0  0  0
  9 17  1  0  0  0  0
  9 18  1  0  0  0  0
 10 23  1  0  0  0  0
 10 26  1  0  0  0  0
 10 37  1  0  0  0  0
 11 13  1  0  0  0  0
 11 24  1  0  0  0  0
 11 29  1  0  0  0  0
 12 14  1  0  0  0  0
 12 24  2  0  0  0  0
 13 14  2  0  0  0  0
 15 16  1  0  0  0  0
 15 30  1  0  0  0  0
 16 17  1  0  0  0  0
 16 31  1  0  0  0  0
 16 32  1  0  0  0  0
 18 20  2  0  0  0  0
 18 22  1  0  0  0  0
 19 20  1  0  0  0  0
 19 33  1  0  0  0  0
 20 21  1  0  0  0  0
 21 34  1  0  0  0  0
 21 35  1  0  0  0  0
 23 36  1  0  0  0  0
 25 27  1  0  0  0  0
 25 39  1  0  0  0  0
 25 40  1  0  0  0  0
 26 28  1  0  0  0  0
 27 41  1  0  0  0  0
 27 42  1  0  0  0  0
 27 43  1  0  0  0  0
 28 44  1  0  0  0  0
 28 45  1  0  0  0  0
 28 46  1  0  0  0  0
 29 47  1  0  0  0  0
 29 48  1  0  0  0  0
 29 49  1  0  0  0  0
M  END
> <PUBCHEM_COMPOUND_CID>
70540064

> <PUBCHEM_CONFORMER_RMSD>
1

> <PUBCHEM_CONFORMER_DIVERSEORDER>
1
248
155
203
142
169
93
342
31
36
132
363
163
230
59
160
64
63
340
224
214
183
323
350
129
280
361
165
41
182
184
8
97
194
138
313
205
200
352
13
137
366
188
34
156
158
177
253
45
139
223
133
178
108
266
189
121
312
190
69
78
225
68
40
143
153
95
300
218
296
251
130
303
328
48
112
258
234
238
273
345
346
201
114
317
187
334
136
73
306
7
282
174
286
207
291
193
5
212
287
74
149
211
80
90
202
301
231
146
324
104
227
364
30
22
2
57
284
229
333
196
343
265
277
88
254
92
147
27
185
15
42
10
309
268
329
226
179
199
262
103
322
102
28
141
299
307
55
3
261
292
38
6
358
186
148
117
192
53
105
237
125
170
39
272
99
195
52
101
161
65
145
327
274
243
47
357
228
260
56
176
37
244
255
232
29
321
173
109
288
167
152
84
24
46
344
81
172
354
315
58
118
359
336
35
222
281
115
210
154
332
111
285
123
335
314
245
43
66
21
270
150
355
162
116
89
348
278
20
257
213
246
338
128
256
267
221
87
12
76
70
308
110
305
171
276
290
98
62
106
289
235
294
341
311
242
298
295
151
250
135
61
351
157
326
18
181
247
209
319
275
353
233
44
49
96
347
51
293
241
208
119
131
304
204
249
206
252
216
85
316
349
4
240
219
60
264
310
127
23
54
365
175
77
191
83
330
72
283
271
362
217
166
25
134
331
19
263
356
198
16
337
236
86
168
360
71
91
33
159
124
269
302
220
79
26
122
320
144
259
32
318
113
11
75
297
180
339
50
94
100
325
126
164
14
9
17
197
239
140
215
120
82
279
67
107

> <PUBCHEM_MMFF94_PARTIAL_CHARGES>
29
1 -0.45
10 -0.73
11 0.31
12 -0.34
13 -0.42
15 0.44
16 0.05
17 0.58
18 0.12
19 0.65
2 -0.29
20 -0.28
21 0.37
22 0.71
23 0.81
24 0.24
25 0.23
26 0.57
28 0.06
29 0.26
3 -0.46
37 0.37
38 0.5
4 -0.56
5 -0.57
6 -0.65
7 -0.57
8 -0.57
9 -0.39

> <PUBCHEM_EFFECTIVE_ROTOR_COUNT>
10.6

> <PUBCHEM_PHARMACOPHORE_FEATURES>
12
1 10 donor
1 27 hydrophobe
1 4 acceptor
1 5 acceptor
1 6 acceptor
1 7 acceptor
1 8 acceptor
3 11 12 24 cation
3 6 7 22 anion
4 9 15 16 17 rings
5 11 12 13 14 24 rings
6 1 9 15 18 19 20 rings

> <PUBCHEM_HEAVY_ATOM_COUNT>
29

> <PUBCHEM_ATOM_DEF_STEREO_COUNT>
1

> <PUBCHEM_ATOM_UDEF_STEREO_COUNT>
2

> <PUBCHEM_BOND_DEF_STEREO_COUNT>
0

> <PUBCHEM_BOND_UDEF_STEREO_COUNT>
0

> <PUBCHEM_ISOTOPIC_ATOM_COUNT>
0

> <PUBCHEM_COMPONENT_COUNT>
1

> <PUBCHEM_CACTVS_TAUTO_COUNT>
4

> <PUBCHEM_CONFORMER_ID>
04345B2000000001

> <PUBCHEM_MMFF94_ENERGY>
60.5986

> <PUBCHEM_FEATURE_SELFOVERLAP>
61.21

> <PUBCHEM_SHAPE_FINGERPRINT>
1100329 8 17912086053905769721
11045515 52 17970915444670832621
11049842 53 18117850025632554420
11513181 2 17917700331859400030
11578080 2 17605810569900686180
12160290 23 17184498424601222538
12788726 201 17977675203720523554
13140716 1 17693656327097882473
133893 2 18266203714673328161
15775530 1 17970646279529822299
20028762 73 16543283597107044599
20600515 1 17981620264040581820
20642791 239 17970943031440804366
22182313 1 18042948931627430005
23366157 5 18260828258449771675
23419403 2 18194098760094454476
23559900 14 18337115682066829237
3298306 158 18199746023955775192
4409770 3 17398097258373307692
59755656 215 18340198704165762889

> <PUBCHEM_SHAPE_MULTIPOLES>
549.12
8.84
6.22
2.2
6.19
0.49
1.35
-4.54
0.23
-7.48
1.36
-3.1
2.51
0.51

> <PUBCHEM_SHAPE_SELFOVERLAP>
1097.933

> <PUBCHEM_SHAPE_VOLUME>
325.6

> <PUBCHEM_COORDINATE_TYPE>
2
5
10

$$$$
