57310488
  -OEChem-04152518253D

 53 57  0     1  0  0  0  0  0999 V2000
   -0.5234    1.0493    2.2063 S   0  0  0  0  0  0  0  0  0  0  0  0
   -4.9940    0.1639    0.6891 S   0  0  0  0  0  0  0  0  0  0  0  0
    0.0699    2.8974   -2.0180 O   0  0  0  0  0  0  0  0  0  0  0  0
    3.3817    1.7290    1.9726 O   0  0  0  0  0  0  0  0  0  0  0  0
   -1.7135    0.4265   -2.9049 O   0  0  0  0  0  0  0  0  0  0  0  0
   -3.5388    1.4492   -1.9814 O   0  0  0  0  0  0  0  0  0  0  0  0
    5.6118   -3.3149   -1.3082 O   0  0  0  0  0  0  0  0  0  0  0  0
   -0.5648    1.2647   -0.4396 N   0  0  0  0  0  0  0  0  0  0  0  0
    2.5574    2.0408   -0.1734 N   0  0  0  0  0  0  0  0  0  0  0  0
   -7.6791   -0.5858    0.6790 N   0  0  0  0  0  0  0  0  0  0  0  0
   -6.3635   -2.1789    0.0197 N   0  0  0  0  0  0  0  0  0  0  0  0
   -8.4871   -1.6193    0.4042 N   0  0  0  0  0  0  0  0  0  0  0  0
   -7.6770   -2.5906    0.0011 N   0  0  0  0  0  0  0  0  0  0  0  0
    0.3581    0.9387    0.6324 C   0  0  1  0  0  0  0  0  0  0  0  0
    1.1516    2.1913    0.2005 C   0  0  2  0  0  0  0  0  0  0  0  0
    0.1817    2.2324   -1.0148 C   0  0  0  0  0  0  0  0  0  0  0  0
   -1.7638    0.6522   -0.6159 C   0  0  0  0  0  0  0  0  0  0  0  0
   -2.3216   -0.1040    0.3594 C   0  0  0  0  0  0  0  0  0  0  0  0
   -1.7195   -0.2531    1.7547 C   0  0  0  0  0  0  0  0  0  0  0  0
    3.5681    1.8189    0.7601 C   0  0  0  0  0  0  0  0  0  0  0  0
    4.9474    1.7014    0.1415 C   0  0  0  0  0  0  0  0  0  0  0  0
    5.5314    0.3777    0.4879 C   0  0  0  0  0  0  0  0  0  0  0  0
    6.3066    0.1808    1.7657 C   0  0  0  0  0  0  0  0  0  0  0  0
   -3.6079   -0.8809    0.2118 C   0  0  0  0  0  0  0  0  0  0  0  0
    6.7335   -1.2955    1.7500 C   0  0  0  0  0  0  0  0  0  0  0  0
    5.4679   -0.7571   -0.2210 C   0  0  0  0  0  0  0  0  0  0  0  0
   -2.4593    0.9003   -1.8874 C   0  0  0  0  0  0  0  0  0  0  0  0
    6.1694   -1.8157    0.4727 C   0  0  0  0  0  0  0  0  0  0  0  0
    4.8370   -1.0300   -1.4893 C   0  0  0  0  0  0  0  0  0  0  0  0
    6.2133   -3.0295   -0.0869 C   0  0  0  0  0  0  0  0  0  0  0  0
    4.9417   -2.2840   -1.9613 C   0  0  0  0  0  0  0  0  0  0  0  0
   -6.3879   -0.9357    0.4421 C   0  0  0  0  0  0  0  0  0  0  0  0
   -8.2272    0.6604    1.1512 C   0  0  0  0  0  0  0  0  0  0  0  0
    0.8807   -0.0108    0.4631 H   0  0  0  0  0  0  0  0  0  0  0  0
    1.0202    3.0756    0.8389 H   0  0  0  0  0  0  0  0  0  0  0  0
    2.8202    2.0991   -1.1543 H   0  0  0  0  0  0  0  0  0  0  0  0
   -2.5064   -0.2169    2.5150 H   0  0  0  0  0  0  0  0  0  0  0  0
   -1.2267   -1.2285    1.8337 H   0  0  0  0  0  0  0  0  0  0  0  0
    4.9056    1.8409   -0.9438 H   0  0  0  0  0  0  0  0  0  0  0  0
    5.5700    2.5146    0.5311 H   0  0  0  0  0  0  0  0  0  0  0  0
    7.1838    0.8365    1.7947 H   0  0  0  0  0  0  0  0  0  0  0  0
    5.6883    0.3929    2.6442 H   0  0  0  0  0  0  0  0  0  0  0  0
   -3.5827   -1.7865    0.8286 H   0  0  0  0  0  0  0  0  0  0  0  0
   -3.7431   -1.2143   -0.8231 H   0  0  0  0  0  0  0  0  0  0  0  0
    6.3210   -1.8268    2.6143 H   0  0  0  0  0  0  0  0  0  0  0  0
    7.8250   -1.3832    1.7704 H   0  0  0  0  0  0  0  0  0  0  0  0
    4.3028   -0.2599   -2.0303 H   0  0  0  0  0  0  0  0  0  0  0  0
    6.7030   -3.8964    0.3296 H   0  0  0  0  0  0  0  0  0  0  0  0
   -2.1418    0.5716   -3.7754 H   0  0  0  0  0  0  0  0  0  0  0  0
    4.5176   -2.6258   -2.8940 H   0  0  0  0  0  0  0  0  0  0  0  0
   -7.8115    0.8704    2.1396 H   0  0  0  0  0  0  0  0  0  0  0  0
   -9.3153    0.5789    1.2189 H   0  0  0  0  0  0  0  0  0  0  0  0
   -7.9606    1.4481    0.4424 H   0  0  0  0  0  0  0  0  0  0  0  0
  1 14  1  0  0  0  0
  1 19  1  0  0  0  0
  2 24  1  0  0  0  0
  2 32  1  0  0  0  0
  3 16  2  0  0  0  0
  4 20  2  0  0  0  0
  5 27  1  0  0  0  0
  5 49  1  0  0  0  0
  6 27  2  0  0  0  0
  7 30  1  0  0  0  0
  7 31  1  0  0  0  0
  8 14  1  0  0  0  0
  8 16  1  0  0  0  0
  8 17  1  0  0  0  0
  9 15  1  0  0  0  0
  9 20  1  0  0  0  0
  9 36  1  0  0  0  0
 10 12  1  0  0  0  0
 10 32  1  0  0  0  0
 10 33  1  0  0  0  0
 11 13  1  0  0  0  0
 11 32  2  0  0  0  0
 12 13  2  0  0  0  0
 14 15  1  0  0  0  0
 14 34  1  0  0  0  0
 15 16  1  0  0  0  0
 15 35  1  0  0  0  0
 17 18  2  0  0  0  0
 17 27  1  0  0  0  0
 18 19  1  0  0  0  0
 18 24  1  0  0  0  0
 19 37  1  0  0  0  0
 19 38  1  0  0  0  0
 20 21  1  0  0  0  0
 21 22  1  0  0  0  0
 21 39  1  0  0  0  0
 21 40  1  0  0  0  0
 22 23  1  0  0  0  0
 22 26  2  0  0  0  0
 23 25  1  0  0  0  0
 23 41  1  0  0  0  0
 23 42  1  0  0  0  0
 24 43  1  0  0  0  0
 24 44  1  0  0  0  0
 25 28  1  0  0  0  0
 25 45  1  0  0  0  0
 25 46  1  0  0  0  0
 26 28  1  0  0  0  0
 26 29  1  0  0  0  0
 28 30  2  0  0  0  0
 29 31  2  0  0  0  0
 29 47  1  0  0  0  0
 30 48  1  0  0  0  0
 31 50  1  0  0  0  0
 33 51  1  0  0  0  0
 33 52  1  0  0  0  0
 33 53  1  0  0  0  0
M  END
> <PUBCHEM_COMPOUND_CID>
57310488

> <PUBCHEM_CONFORMER_RMSD>
1.2

> <PUBCHEM_CONFORMER_DIVERSEORDER>
1
247
53
311
171
221
254
25
147
37
180
201
3
179
274
232
312
125
172
224
138
246
158
90
259
255
155
63
207
178
187
170
160
183
299
86
229
200
251
188
181
142
287
11
98
241
206
167
291
82
8
295
270
118
307
132
109
47
309
74
244
226
262
242
245
191
185
217
85
43
40
210
31
211
292
303
281
148
196
286
194
101
122
248
51
174
144
146
102
121
81
260
150
113
205
38
273
235
139
68
314
131
166
157
56
208
69
306
233
28
80
105
95
103
75
159
213
278
165
304
316
145
48
24
267
119
52
60
218
89
302
195
163
135
49
176
117
124
276
250
23
293
197
21
5
182
300
96
203
44
253
153
177
65
310
156
7
280
209
41
285
66
173
110
77
58
57
315
175
266
219
136
164
240
230
272
72
14
26
193
202
15
71
67
199
289
46
88
61
215
9
184
76
27
220
55
149
79
92
169
268
137
269
305
35
161
39
252
73
168
94
298
186
70
265
54
238
294
290
134
154
32
78
297
2
214
100
296
106
83
143
112
162
141
29
17
116
123
16
231
283
33
234
6
115
42
222
111
50
152
30
228
263
239
120
279
19
249
126
284
198
128
10
12
225
127
282
308
4
59
87
277
64
36
104
237
243
108
236
190
258
45
91
192
129
99
97
22
20
313
114
13
93
223
62
84
133
140
34
216
257
189
264
107
256
204
261
275
18
271
130
212
227
288
301
151

> <PUBCHEM_MMFF94_PARTIAL_CHARGES>
36
1 -0.45
10 0.31
11 -0.34
12 -0.42
14 0.44
15 0.28
16 0.58
17 0.12
18 -0.28
19 0.37
2 -0.29
20 0.57
21 0.2
22 -0.28
23 0.14
24 0.37
25 0.14
27 0.71
28 -0.14
29 -0.15
3 -0.57
30 -0.07
31 -0.07
32 0.24
33 0.26
36 0.37
4 -0.57
47 0.15
48 0.15
49 0.5
5 -0.65
50 0.15
6 -0.57
7 -0.15
8 -0.39
9 -0.65

> <PUBCHEM_EFFECTIVE_ROTOR_COUNT>
9.2

> <PUBCHEM_PHARMACOPHORE_FEATURES>
13
1 3 acceptor
1 4 acceptor
1 5 acceptor
1 6 acceptor
1 7 acceptor
1 9 donor
3 10 11 32 cation
3 5 6 27 anion
4 8 14 15 16 rings
5 10 11 12 13 32 rings
5 22 23 25 26 28 rings
6 1 8 14 17 18 19 rings
6 7 26 28 29 30 31 rings

> <PUBCHEM_HEAVY_ATOM_COUNT>
33

> <PUBCHEM_ATOM_DEF_STEREO_COUNT>
0

> <PUBCHEM_ATOM_UDEF_STEREO_COUNT>
2

> <PUBCHEM_BOND_DEF_STEREO_COUNT>
0

> <PUBCHEM_BOND_UDEF_STEREO_COUNT>
0

> <PUBCHEM_ISOTOPIC_ATOM_COUNT>
0

> <PUBCHEM_COMPONENT_COUNT>
1

> <PUBCHEM_CACTVS_TAUTO_COUNT>
4

> <PUBCHEM_CONFORMER_ID>
036A7D1800000001

> <PUBCHEM_MMFF94_ENERGY>
79.0784

> <PUBCHEM_FEATURE_SELFOVERLAP>
66.375

> <PUBCHEM_SHAPE_FINGERPRINT>
10 15 15195570134173206441
10319688 67 14549016585536530023
10533779 47 18339939160257547443
10981352 41 18413108372876895326
11181472 205 18341908393461250065
11331351 85 18334859446364999509
11672396 43 18042417988276681779
11828532 37 17604158137242724866
11991303 11 14345800487009293113
12047536 79 16916795041566462752
13533116 47 18060422434602717672
13617811 41 16226045604468723919
13782708 43 18333453161996287771
14216079 64 18334574655161144419
14537116 161 12973602244588581818
14556957 393 14418126288759703815
15131766 46 17197968988404981193
15198563 99 16153970401803394463
15352257 5 18408603682005941747
15475509 8 17894916226413108553
15484559 13 13928134824794383394
15510800 12 18339075987642232190
16728300 4 17774726342268500735
16994733 274 9223237325896847703
1768 124 18272651277003053910
19301679 30 18201442437338337136
19841028 212 18272375235418741146
20554085 129 12895073998671378053
21130935 74 18341333409325131931
21781051 124 16371021727698016731
21814621 53 18201709627174934289
22864921 267 17846790571862492122
23569943 247 18187922825130789019
34797466 226 17240765124968197140
3886686 26 16624365475862863370
439807 62 17894348869944418258
86090 222 18411705374792188474
9831232 110 18407759222563051846

> <PUBCHEM_SHAPE_MULTIPOLES>
627.59
23.5
3.07
2.1
26.06
1.17
-0.7
19.48
6.85
-3.08
-0.89
-0.8
-0.54
1.97

> <PUBCHEM_SHAPE_SELFOVERLAP>
1332.997

> <PUBCHEM_SHAPE_VOLUME>
351

> <PUBCHEM_COORDINATE_TYPE>
2
5
10

$$$$
