53822330
  Mrv15b2304172506193D          

 62 63  0  0  0  0            999 V2000
    3.2513   -0.4820   -0.0401 S   0  0  0  0  0  0  0  0  0  0  0  0
    0.1831    0.0341   -0.3959 O   0  0  0  0  0  0  0  0  0  0  0  0
    8.4467    2.2402    0.6001 O   0  5  0  0  0  0  0  0  0  0  0  0
    8.4081    0.2186    1.1856 O   0  0  0  0  0  0  0  0  0  0  0  0
    8.9080   -1.5827   -1.2186 N   0  0  1  0  0  0  0  0  0  0  0  0
    6.7896   -1.4049   -0.7937 N   0  0  0  0  0  0  0  0  0  0  0  0
    8.2996    1.0113    0.3387 N   0  3  0  0  0  0  0  0  0  0  0  0
   -0.9973    2.6692   -1.2493 N   0  0  1  0  0  0  0  0  0  0  0  0
   10.1220   -1.0442   -1.6590 C   0  0  1  0  0  0  0  0  0  0  0  0
   11.0704   -2.2606   -1.6030 C   0  0  1  0  0  0  0  0  0  0  0  0
    9.9743   -0.4348   -3.0859 C   0  0  2  0  0  0  0  0  0  0  0  0
   12.5143   -1.8660   -1.3086 C   0  0  1  0  0  0  0  0  0  0  0  0
   11.1123    0.4923   -3.5086 C   0  0  1  0  0  0  0  0  0  0  0  0
   13.3816   -1.9666   -2.5820 C   0  0  2  0  0  0  0  0  0  0  0  0
   12.3058   -0.2075   -4.1770 C   0  0  1  0  0  0  0  0  0  0  0  0
   13.4624   -0.5603   -3.2044 C   0  0  1  0  0  0  0  0  0  0  0  0
    7.8938   -0.8135   -0.9848 C   0  0  0  0  0  0  0  0  0  0  0  0
    8.0117    0.6111   -0.9448 C   0  0  1  0  0  0  0  0  0  0  0  0
    5.7422   -0.6043   -0.5698 C   0  0  2  0  0  0  0  0  0  0  0  0
    4.6686   -1.5966   -0.2320 C   0  0  2  0  0  0  0  0  0  0  0  0
    1.8658   -1.5227    0.5251 C   0  0  1  0  0  0  0  0  0  0  0  0
    0.7311   -0.6399    0.6300 C   0  0  0  0  0  0  0  0  0  0  0  0
   -0.8687    0.7150    0.1132 C   0  0  0  0  0  0  0  0  0  0  0  0
   -1.7657    1.5820   -0.6453 C   0  0  1  0  0  0  0  0  0  0  0  0
    0.0691   -0.4100    1.8247 C   0  0  0  0  0  0  0  0  0  0  0  0
   -0.9572    0.4548    1.4783 C   0  0  0  0  0  0  0  0  0  0  0  0
   -1.8955    3.5374   -2.0089 C   0  0  0  0  0  0  0  0  0  0  0  0
   -0.3425    3.4459   -0.1979 C   0  0  0  0  0  0  0  0  0  0  0  0
   10.5012   -0.2486   -1.0177 H   0  0  0  0  0  0  0  0  0  0  0  0
   10.7219   -2.9582   -0.8414 H   0  0  0  0  0  0  0  0  0  0  0  0
   11.0085   -2.7511   -2.5744 H   0  0  0  0  0  0  0  0  0  0  0  0
    9.0261    0.0980   -3.1571 H   0  0  0  0  0  0  0  0  0  0  0  0
    9.9308   -1.2818   -3.7706 H   0  0  0  0  0  0  0  0  0  0  0  0
   12.5417   -0.8441   -0.9301 H   0  0  0  0  0  0  0  0  0  0  0  0
   12.9072   -2.5862   -0.5910 H   0  0  0  0  0  0  0  0  0  0  0  0
   10.7244    1.2638   -4.1736 H   0  0  0  0  0  0  0  0  0  0  0  0
   11.4525    0.9826   -2.5965 H   0  0  0  0  0  0  0  0  0  0  0  0
   12.9113   -2.6503   -3.2888 H   0  0  0  0  0  0  0  0  0  0  0  0
   14.3866   -2.2703   -2.2892 H   0  0  0  0  0  0  0  0  0  0  0  0
   11.9625   -1.1132   -4.6770 H   0  0  0  0  0  0  0  0  0  0  0  0
   12.7167    0.5087   -4.8887 H   0  0  0  0  0  0  0  0  0  0  0  0
   13.5104    0.1859   -2.4113 H   0  0  0  0  0  0  0  0  0  0  0  0
   14.3707   -0.5531   -3.8069 H   0  0  0  0  0  0  0  0  0  0  0  0
    8.6389   -2.3013   -1.8119 H   0  0  0  0  0  0  0  0  0  0  0  0
    7.0723    1.0625   -1.2641 H   0  0  0  0  0  0  0  0  0  0  0  0
    8.8127    0.9283   -1.6126 H   0  0  0  0  0  0  0  0  0  0  0  0
    5.4793   -0.0839   -1.4907 H   0  0  0  0  0  0  0  0  0  0  0  0
    5.9160    0.1357    0.2115 H   0  0  0  0  0  0  0  0  0  0  0  0
    4.5006   -2.2545   -1.0846 H   0  0  0  0  0  0  0  0  0  0  0  0
    4.8588   -2.1686    0.6762 H   0  0  0  0  0  0  0  0  0  0  0  0
    1.6608   -2.2910   -0.2204 H   0  0  0  0  0  0  0  0  0  0  0  0
    2.1259   -1.9829    1.4783 H   0  0  0  0  0  0  0  0  0  0  0  0
   -2.5201    1.9976    0.0226 H   0  0  0  0  0  0  0  0  0  0  0  0
   -2.2539    1.0029   -1.4293 H   0  0  0  0  0  0  0  0  0  0  0  0
    0.2865   -0.7893    2.7463 H   0  0  0  0  0  0  0  0  0  0  0  0
   -1.6576    0.8356    2.1145 H   0  0  0  0  0  0  0  0  0  0  0  0
   -1.3226    4.3480   -2.4592 H   0  0  0  0  0  0  0  0  0  0  0  0
   -2.6499    3.9531   -1.3409 H   0  0  0  0  0  0  0  0  0  0  0  0
   -2.3836    2.9584   -2.7928 H   0  0  0  0  0  0  0  0  0  0  0  0
    0.2304    4.2565   -0.6482 H   0  0  0  0  0  0  0  0  0  0  0  0
   -1.0970    3.8616    0.4701 H   0  0  0  0  0  0  0  0  0  0  0  0
    0.3271    2.7986    0.3684 H   0  0  0  0  0  0  0  0  0  0  0  0
  1 20  1  0  0  0  0
  1 21  1  0  0  0  0
  2 22  1  0  0  0  0
  2 23  1  0  0  0  0
  3  7  1  0  0  0  0
  4  7  2  0  0  0  0
  5  9  1  0  0  0  0
  5 17  1  0  0  0  0
  5 44  1  0  0  0  0
  6 17  2  0  0  0  0
  6 19  1  0  0  0  0
  7 18  1  0  0  0  0
  8 24  1  0  0  0  0
  8 27  1  0  0  0  0
  8 28  1  0  0  0  0
  9 10  1  0  0  0  0
  9 11  1  0  0  0  0
  9 29  1  0  0  0  0
 10 12  1  0  0  0  0
 10 30  1  0  0  0  0
 10 31  1  0  0  0  0
 11 13  1  0  0  0  0
 11 32  1  0  0  0  0
 11 33  1  0  0  0  0
 12 14  1  0  0  0  0
 12 34  1  0  0  0  0
 12 35  1  0  0  0  0
 13 15  1  0  0  0  0
 13 36  1  0  0  0  0
 13 37  1  0  0  0  0
 14 16  1  0  0  0  0
 14 38  1  0  0  0  0
 14 39  1  0  0  0  0
 15 16  1  0  0  0  0
 15 40  1  0  0  0  0
 15 41  1  0  0  0  0
 16 42  1  0  0  0  0
 16 43  1  0  0  0  0
 17 18  1  0  0  0  0
 18 45  1  0  0  0  0
 18 46  1  0  0  0  0
 19 20  1  0  0  0  0
 19 47  1  0  0  0  0
 19 48  1  0  0  0  0
 20 49  1  0  0  0  0
 20 50  1  0  0  0  0
 21 22  1  0  0  0  0
 21 51  1  0  0  0  0
 21 52  1  0  0  0  0
 22 25  2  0  0  0  0
 23 24  1  0  0  0  0
 23 26  2  0  0  0  0
 24 53  1  0  0  0  0
 24 54  1  0  0  0  0
 25 26  1  0  0  0  0
 25 55  1  0  0  0  0
 26 56  1  0  0  0  0
 27 57  1  0  0  0  0
 27 58  1  0  0  0  0
 27 59  1  0  0  0  0
 28 60  1  0  0  0  0
 28 61  1  0  0  0  0
 28 62  1  0  0  0  0
M  CHG  2   3  -1   7   1
M  END
