@<TRIPOS>MOLECULE
lig
 62 63 0 0 0
SMALL
GASTEIGER

@<TRIPOS>ATOM
      1 S           3.2513   -0.4820   -0.0401 S.3     1  UNL11      -0.1490
      2 O           0.1831    0.0341   -0.3959 O.2     1  UNL11      -0.4624
      3 O           8.4467    2.2402    0.6001 O.co2   1  UNL11      -0.5813
      4 O           8.4081    0.2186    1.1856 O.2     1  UNL11       0.0350
      5 N           8.9080   -1.5827   -1.2186 N.pl3   1  UNL11      -0.2295
      6 N           6.7896   -1.4049   -0.7937 N.2     1  UNL11      -0.0808
      7 N           8.2996    1.0113    0.3387 N.pl3   1  UNL11       0.0505
      8 N          -0.9973    2.6692   -1.2493 N.3     1  UNL11      -0.3013
      9 C          10.1220   -1.0442   -1.6590 C.3     1  UNL11       0.0889
     10 C          11.0704   -2.2606   -1.6030 C.3     1  UNL11      -0.0140
     11 C           9.9743   -0.4348   -3.0859 C.3     1  UNL11      -0.0140
     12 C          12.5143   -1.8660   -1.3086 C.3     1  UNL11      -0.0494
     13 C          11.1123    0.4923   -3.5086 C.3     1  UNL11      -0.0494
     14 C          13.3816   -1.9666   -2.5820 C.3     1  UNL11      -0.0529
     15 C          12.3058   -0.2075   -4.1770 C.3     1  UNL11      -0.0529
     16 C          13.4624   -0.5603   -3.2044 C.3     1  UNL11      -0.0531
     17 C           7.8938   -0.8135   -0.9848 C.2     1  UNL11       0.3531
     18 C           8.0117    0.6111   -0.9448 C.3     1  UNL11       0.3072
     19 C           5.7422   -0.6043   -0.5698 C.3     1  UNL11       0.1409
     20 C           4.6686   -1.5966   -0.2320 C.3     1  UNL11       0.0360
     21 C           1.8658   -1.5227    0.5251 C.3     1  UNL11       0.0519
     22 C           0.7311   -0.6399    0.6300 C.3     1  UNL11       0.1151
     23 C          -0.8687    0.7150    0.1132 C.3     1  UNL11       0.1192
     24 C          -1.7657    1.5820   -0.6453 C.3     1  UNL11       0.0566
     25 C           0.0691   -0.4100    1.8247 C.3     1  UNL11      -0.0196
     26 C          -0.9572    0.4548    1.4783 C.3     1  UNL11      -0.0191
     27 C          -1.8955    3.5374   -2.0089 C.3     1  UNL11      -0.0126
     28 C          -0.3425    3.4459   -0.1979 C.3     1  UNL11      -0.0126
     29 H          10.5012   -0.2486   -1.0177 H       1  UNL11       0.0761
     30 H          10.7219   -2.9582   -0.8414 H       1  UNL11       0.0304
     31 H          11.0085   -2.7511   -2.5744 H       1  UNL11       0.0304
     32 H           9.0261    0.0980   -3.1571 H       1  UNL11       0.0304
     33 H           9.9308   -1.2818   -3.7706 H       1  UNL11       0.0304
     34 H          12.5417   -0.8441   -0.9301 H       1  UNL11       0.0267
     35 H          12.9072   -2.5862   -0.5910 H       1  UNL11       0.0267
     36 H          10.7244    1.2638   -4.1736 H       1  UNL11       0.0267
     37 H          11.4525    0.9826   -2.5965 H       1  UNL11       0.0267
     38 H          12.9113   -2.6503   -3.2888 H       1  UNL11       0.0265
     39 H          14.3866   -2.2703   -2.2892 H       1  UNL11       0.0265
     40 H          11.9625   -1.1132   -4.6770 H       1  UNL11       0.0265
     41 H          12.7167    0.5087   -4.8887 H       1  UNL11       0.0265
     42 H          13.5104    0.1859   -2.4113 H       1  UNL11       0.0265
     43 H          14.3707   -0.5531   -3.8069 H       1  UNL11       0.0265
     44 H           8.6389   -2.3013   -1.8119 H       1  UNL11       0.2915
     45 H           7.0723    1.0625   -1.2641 H       1  UNL11       0.1221
     46 H           8.8127    0.9283   -1.6126 H       1  UNL11       0.1221
     47 H           5.4793   -0.0839   -1.4907 H       1  UNL11       0.0799
     48 H           5.9160    0.1357    0.2115 H       1  UNL11       0.0799
     49 H           4.5006   -2.2545   -1.0846 H       1  UNL11       0.0416
     50 H           4.8588   -2.1686    0.6762 H       1  UNL11       0.0416
     51 H           1.6608   -2.2910   -0.2204 H       1  UNL11       0.0456
     52 H           2.1259   -1.9829    1.4783 H       1  UNL11       0.0456
     53 H          -2.5201    1.9976    0.0226 H       1  UNL11       0.0506
     54 H          -2.2539    1.0029   -1.4293 H       1  UNL11       0.0506
     55 H           0.2865   -0.7893    2.7463 H       1  UNL11       0.0652
     56 H          -1.6576    0.8356    2.1145 H       1  UNL11       0.0652
     57 H          -1.3226    4.3480   -2.4592 H       1  UNL11       0.0391
     58 H          -2.6499    3.9531   -1.3409 H       1  UNL11       0.0391
     59 H          -2.3836    2.9584   -2.7928 H       1  UNL11       0.0391
     60 H           0.2304    4.2565   -0.6482 H       1  UNL11       0.0391
     61 H          -1.0970    3.8616    0.4701 H       1  UNL11       0.0391
     62 H           0.3271    2.7986    0.3684 H       1  UNL11       0.0391
@<TRIPOS>UNITY_ATOM_ATTR
3 1
charge -1
7 1
charge 1
@<TRIPOS>BOND
     1     1    20    1
     2     1    21    1
     3     2    22   ar
     4     2    23   ar
     5     3     7    1
     6     4     7    2
     7     5     9    1
     8     5    17    1
     9     5    44    1
    10     6    17    2
    11     6    19    1
    12     7    18    1
    13     8    24    1
    14     8    27    1
    15     8    28    1
    16     9    10    1
    17     9    11    1
    18     9    29    1
    19    10    12    1
    20    10    30    1
    21    10    31    1
    22    11    13    1
    23    11    32    1
    24    11    33    1
    25    12    14    1
    26    12    34    1
    27    12    35    1
    28    13    15    1
    29    13    36    1
    30    13    37    1
    31    14    16    1
    32    14    38    1
    33    14    39    1
    34    15    16    1
    35    15    40    1
    36    15    41    1
    37    16    42    1
    38    16    43    1
    39    17    18    1
    40    18    45    1
    41    18    46    1
    42    19    20    1
    43    19    47    1
    44    19    48    1
    45    20    49    1
    46    20    50    1
    47    21    22    1
    48    21    51    1
    49    21    52    1
    50    22    25   ar
    51    23    24    1
    52    23    26   ar
    53    24    53    1
    54    24    54    1
    55    25    26   ar
    56    25    55    1
    57    26    56    1
    58    27    57    1
    59    27    58    1
    60    27    59    1
    61    28    60    1
    62    28    61    1
    63    28    62    1
