lig
 OpenBabel04172506193D

 62 63  0  0  0  0  0  0  0  0999 V2000
   -0.4088    2.1569   -2.8149 S   0  0  0  0  0  0  0  0  0  0  0  0
   -3.2096    1.5400   -0.6284 O   0  0  0  0  0  0  0  0  0  0  0  0
    3.4176    3.6546    1.4913 O   0  5  0  0  0  0  0  0  0  0  0  0
    3.7798    1.6087    2.2243 O   0  0  0  0  0  0  0  0  0  0  0  0
    3.0606   -0.4384   -0.0056 N   0  0  0  0  0  0  0  0  0  0  0  0
    1.5292    1.3024   -0.5979 N   0  0  0  0  0  0  0  0  0  0  0  0
    3.6459    2.4449    1.3131 N   0  3  0  0  0  0  0  0  0  0  0  0
   -3.4946   -0.1764    2.3763 N   0  0  0  0  0  0  0  0  0  0  0  0
    2.1956   -1.6045   -0.1121 C   0  0  0  0  0  0  0  0  0  0  0  0
    1.4885   -1.7810    1.2352 C   0  0  0  0  0  0  0  0  0  0  0  0
    3.0571   -2.7880   -0.5646 C   0  0  0  0  0  0  0  0  0  0  0  0
    0.4384   -2.8873    1.3480 C   0  0  0  0  0  0  0  0  0  0  0  0
    2.3514   -4.1145   -0.8512 C   0  0  0  0  0  0  0  0  0  0  0  0
   -0.5277   -2.9939    0.1681 C   0  0  0  0  0  0  0  0  0  0  0  0
    1.0497   -4.0054   -1.6451 C   0  0  0  0  0  0  0  0  0  0  0  0
   -0.2215   -4.1360   -0.8032 C   0  0  0  0  0  0  0  0  0  0  0  0
    2.6975    0.8737   -0.2357 C   0  0  0  0  0  0  0  0  0  0  0  0
    3.7436    1.9622   -0.0738 C   0  0  0  0  0  0  0  0  0  0  0  0
    1.3683    2.7357   -0.7994 C   0  0  0  0  0  0  0  0  0  0  0  0
   -0.0578    3.0077   -1.2513 C   0  0  0  0  0  0  0  0  0  0  0  0
   -2.2141    2.2098   -2.7445 C   0  0  0  0  0  0  0  0  0  0  0  0
   -2.7789    1.1383   -1.8531 C   0  0  0  0  0  0  0  0  0  0  0  0
   -3.6736    0.4303    0.0038 C   0  0  0  0  0  0  0  0  0  0  0  0
   -4.1976    0.6272    1.3629 C   0  0  0  0  0  0  0  0  0  0  0  0
   -2.9626   -0.2160   -2.0097 C   0  0  0  0  0  0  0  0  0  0  0  0
   -3.5439   -0.6757   -0.8039 C   0  0  0  0  0  0  0  0  0  0  0  0
   -2.2110    0.4367    2.7007 C   0  0  0  0  0  0  0  0  0  0  0  0
   -4.3216   -0.3121    3.5707 C   0  0  0  0  0  0  0  0  0  0  0  0
    1.4581   -1.3910   -0.8915 H   0  0  0  0  0  0  0  0  0  0  0  0
    2.2337   -1.9293    2.0283 H   0  0  0  0  0  0  0  0  0  0  0  0
    0.9881   -0.8347    1.4858 H   0  0  0  0  0  0  0  0  0  0  0  0
    3.5808   -2.4902   -1.4846 H   0  0  0  0  0  0  0  0  0  0  0  0
    3.8513   -2.9737    0.1711 H   0  0  0  0  0  0  0  0  0  0  0  0
   -0.1522   -2.6661    2.2479 H   0  0  0  0  0  0  0  0  0  0  0  0
    0.9133   -3.8500    1.5597 H   0  0  0  0  0  0  0  0  0  0  0  0
    2.2043   -4.6803    0.0738 H   0  0  0  0  0  0  0  0  0  0  0  0
    3.0546   -4.7217   -1.4377 H   0  0  0  0  0  0  0  0  0  0  0  0
   -0.6170   -2.0427   -0.3671 H   0  0  0  0  0  0  0  0  0  0  0  0
   -1.5261   -3.1943    0.5799 H   0  0  0  0  0  0  0  0  0  0  0  0
    1.0338   -4.8383   -2.3611 H   0  0  0  0  0  0  0  0  0  0  0  0
    1.0207   -3.0961   -2.2551 H   0  0  0  0  0  0  0  0  0  0  0  0
   -1.0689   -4.2130   -1.4971 H   0  0  0  0  0  0  0  0  0  0  0  0
   -0.1984   -5.0855   -0.2533 H   0  0  0  0  0  0  0  0  0  0  0  0
    4.0051   -0.6176    0.3276 H   0  0  0  0  0  0  0  0  0  0  0  0
    3.7490    2.7941   -0.7736 H   0  0  0  0  0  0  0  0  0  0  0  0
    4.7391    1.5063   -0.1474 H   0  0  0  0  0  0  0  0  0  0  0  0
    2.0232    3.1331   -1.5827 H   0  0  0  0  0  0  0  0  0  0  0  0
    1.4870    3.2982    0.1276 H   0  0  0  0  0  0  0  0  0  0  0  0
   -0.7490    2.6616   -0.4762 H   0  0  0  0  0  0  0  0  0  0  0  0
   -0.2111    4.0825   -1.3914 H   0  0  0  0  0  0  0  0  0  0  0  0
   -2.5943    2.0530   -3.7598 H   0  0  0  0  0  0  0  0  0  0  0  0
   -2.5516    3.2025   -2.4281 H   0  0  0  0  0  0  0  0  0  0  0  0
   -4.2035    1.6907    1.6368 H   0  0  0  0  0  0  0  0  0  0  0  0
   -5.2532    0.3236    1.3274 H   0  0  0  0  0  0  0  0  0  0  0  0
   -2.7092   -0.8013   -2.8819 H   0  0  0  0  0  0  0  0  0  0  0  0
   -3.8302   -1.6881   -0.5572 H   0  0  0  0  0  0  0  0  0  0  0  0
   -1.5617    0.4937    1.8198 H   0  0  0  0  0  0  0  0  0  0  0  0
   -1.6727   -0.1725    3.4360 H   0  0  0  0  0  0  0  0  0  0  0  0
   -2.3218    1.4464    3.1131 H   0  0  0  0  0  0  0  0  0  0  0  0
   -5.2590   -0.8295    3.3377 H   0  0  0  0  0  0  0  0  0  0  0  0
   -4.5642    0.6579    4.0201 H   0  0  0  0  0  0  0  0  0  0  0  0
   -3.8112   -0.9215    4.3251 H   0  0  0  0  0  0  0  0  0  0  0  0
  1 20  1  0  0  0  0
  1 21  1  0  0  0  0
  2 22  1  0  0  0  0
  2 23  1  0  0  0  0
  3  7  1  0  0  0  0
  4  7  2  0  0  0  0
  5  9  1  0  0  0  0
  5 17  1  0  0  0  0
  5 44  1  0  0  0  0
  6 17  2  0  0  0  0
  6 19  1  0  0  0  0
  7 18  1  0  0  0  0
  8 24  1  0  0  0  0
  8 27  1  0  0  0  0
  8 28  1  0  0  0  0
  9 10  1  0  0  0  0
  9 11  1  0  0  0  0
  9 29  1  0  0  0  0
 10 12  1  0  0  0  0
 10 30  1  0  0  0  0
 10 31  1  0  0  0  0
 11 13  1  0  0  0  0
 11 32  1  0  0  0  0
 11 33  1  0  0  0  0
 12 14  1  0  0  0  0
 12 34  1  0  0  0  0
 12 35  1  0  0  0  0
 13 15  1  0  0  0  0
 13 36  1  0  0  0  0
 13 37  1  0  0  0  0
 14 16  1  0  0  0  0
 14 38  1  0  0  0  0
 14 39  1  0  0  0  0
 15 16  1  0  0  0  0
 15 40  1  0  0  0  0
 15 41  1  0  0  0  0
 16 42  1  0  0  0  0
 16 43  1  0  0  0  0
 17 18  1  0  0  0  0
 18 45  1  0  0  0  0
 18 46  1  0  0  0  0
 19 20  1  0  0  0  0
 19 47  1  0  0  0  0
 19 48  1  0  0  0  0
 20 49  1  0  0  0  0
 20 50  1  0  0  0  0
 21 22  1  0  0  0  0
 21 51  1  0  0  0  0
 21 52  1  0  0  0  0
 22 25  2  0  0  0  0
 23 24  1  0  0  0  0
 23 26  2  0  0  0  0
 24 53  1  0  0  0  0
 24 54  1  0  0  0  0
 25 26  1  0  0  0  0
 25 55  1  0  0  0  0
 26 56  1  0  0  0  0
 27 57  1  0  0  0  0
 27 58  1  0  0  0  0
 27 59  1  0  0  0  0
 28 60  1  0  0  0  0
 28 61  1  0  0  0  0
 28 62  1  0  0  0  0
M  CHG  2   3  -1   7   1
M  END
