53822330
  Mrv15b2304172506192D          

 62 63  0  0  0  0            999 V2000
    1.3579   -0.4059    0.0000 S   0  0  0  0  0  0  0  0  0  0  0  0
    3.5405   -0.7415    0.0000 O   0  0  0  0  0  0  0  0  0  0  0  0
   -0.0711    0.4191    0.0000 O   0  5  0  0  0  0  0  0  0  0  0  0
   -0.7855    1.6566    0.0000 O   0  0  0  0  0  0  0  0  0  0  0  0
   -2.2145   -0.8184    0.0000 N   0  0  0  0  0  0  0  0  0  0  0  0
   -0.7855   -0.8184    0.0000 N   0  0  0  0  0  0  0  0  0  0  0  0
   -0.7855    0.8316    0.0000 N   0  3  0  0  0  0  0  0  0  0  0  0
    5.2486   -0.9683    0.0000 N   0  0  0  0  0  0  0  0  0  0  0  0
   -2.9289   -0.4059    0.0000 C   0  0  0  0  0  0  0  0  0  0  0  0
   -3.5835   -0.9081    0.0000 C   0  0  0  0  0  0  0  0  0  0  0  0
   -2.8213    0.4120    0.0000 C   0  0  0  0  0  0  0  0  0  0  0  0
   -4.4014   -0.8004    0.0000 C   0  0  0  0  0  0  0  0  0  0  0  0
   -3.3235    1.0666    0.0000 C   0  0  0  0  0  0  0  0  0  0  0  0
   -4.9036   -0.1459    0.0000 C   0  0  0  0  0  0  0  0  0  0  0  0
   -4.1414    1.1742    0.0000 C   0  0  0  0  0  0  0  0  0  0  0  0
   -4.7959    0.6720    0.0000 C   0  0  0  0  0  0  0  0  0  0  0  0
   -1.5000   -0.4059    0.0000 C   0  0  0  0  0  0  0  0  0  0  0  0
   -1.5000    0.4191    0.0000 C   0  0  0  0  0  0  0  0  0  0  0  0
   -0.0711   -0.4059    0.0000 C   0  0  0  0  0  0  0  0  0  0  0  0
    0.6434   -0.8184    0.0000 C   0  0  0  0  0  0  0  0  0  0  0  0
    2.0724   -0.8184    0.0000 C   0  0  0  0  0  0  0  0  0  0  0  0
    2.7868   -0.4059    0.0000 C   0  0  0  0  0  0  0  0  0  0  0  0
    4.0925   -0.1284    0.0000 C   0  0  0  0  0  0  0  0  0  0  0  0
    4.9130   -0.2146    0.0000 C   0  0  0  0  0  0  0  0  0  0  0  0
    2.8731    0.4146    0.0000 C   0  0  0  0  0  0  0  0  0  0  0  0
    3.6800    0.5861    0.0000 C   0  0  0  0  0  0  0  0  0  0  0  0
    6.0691   -1.0545    0.0000 C   0  0  0  0  0  0  0  0  0  0  0  0
    4.7636   -1.6357    0.0000 C   0  0  0  0  0  0  0  0  0  0  0  0
   -3.6434    0.0066    0.0000 H   0  0  0  0  0  0  0  0  0  0  0  0
   -3.7267   -1.7206    0.0000 H   0  0  0  0  0  0  0  0  0  0  0  0
   -3.0532   -1.5401    0.0000 H   0  0  0  0  0  0  0  0  0  0  0  0
   -2.0088    0.2688    0.0000 H   0  0  0  0  0  0  0  0  0  0  0  0
   -2.1893    0.9423    0.0000 H   0  0  0  0  0  0  0  0  0  0  0  0
   -5.0772   -1.2736    0.0000 H   0  0  0  0  0  0  0  0  0  0  0  0
   -4.4733   -1.6223    0.0000 H   0  0  0  0  0  0  0  0  0  0  0  0
   -2.6477    1.5398    0.0000 H   0  0  0  0  0  0  0  0  0  0  0  0
   -3.2516    1.8884    0.0000 H   0  0  0  0  0  0  0  0  0  0  0  0
   -5.7161   -0.0027    0.0000 H   0  0  0  0  0  0  0  0  0  0  0  0
   -5.5356   -0.6762    0.0000 H   0  0  0  0  0  0  0  0  0  0  0  0
   -3.9982    1.9867    0.0000 H   0  0  0  0  0  0  0  0  0  0  0  0
   -4.6717    1.8062    0.0000 H   0  0  0  0  0  0  0  0  0  0  0  0
   -5.2691    1.3478    0.0000 H   0  0  0  0  0  0  0  0  0  0  0  0
   -5.6178    0.7439    0.0000 H   0  0  0  0  0  0  0  0  0  0  0  0
   -2.2145   -1.6434    0.0000 H   0  0  0  0  0  0  0  0  0  0  0  0
   -1.4482    1.2425    0.0000 H   0  0  0  0  0  0  0  0  0  0  0  0
   -0.7855    0.0066    0.0000 H   0  0  0  0  0  0  0  0  0  0  0  0
    0.6434    0.0066    0.0000 H   0  0  0  0  0  0  0  0  0  0  0  0
   -0.0711   -1.2309    0.0000 H   0  0  0  0  0  0  0  0  0  0  0  0
    0.7867   -1.6309    0.0000 H   0  0  0  0  0  0  0  0  0  0  0  0
    1.2754   -1.3487    0.0000 H   0  0  0  0  0  0  0  0  0  0  0  0
    2.1073   -1.6427    0.0000 H   0  0  0  0  0  0  0  0  0  0  0  0
    2.7954   -1.2157    0.0000 H   0  0  0  0  0  0  0  0  0  0  0  0
    5.6459    0.1642    0.0000 H   0  0  0  0  0  0  0  0  0  0  0  0
    5.0468    0.5995    0.0000 H   0  0  0  0  0  0  0  0  0  0  0  0
    2.2600    0.9666    0.0000 H   0  0  0  0  0  0  0  0  0  0  0  0
    4.0156    1.3398    0.0000 H   0  0  0  0  0  0  0  0  0  0  0  0
    5.9828   -1.8750    0.0000 H   0  0  0  0  0  0  0  0  0  0  0  0
    6.8895   -1.1408    0.0000 H   0  0  0  0  0  0  0  0  0  0  0  0
    6.1553   -0.2340    0.0000 H   0  0  0  0  0  0  0  0  0  0  0  0
    4.0962   -1.1508    0.0000 H   0  0  0  0  0  0  0  0  0  0  0  0
    4.2787   -2.3032    0.0000 H   0  0  0  0  0  0  0  0  0  0  0  0
    5.4311   -2.1206    0.0000 H   0  0  0  0  0  0  0  0  0  0  0  0
  1 20  1  0  0  0  0
  1 21  1  0  0  0  0
  2 22  1  0  0  0  0
  2 23  1  0  0  0  0
  3  7  1  0  0  0  0
  4  7  2  0  0  0  0
  5  9  1  0  0  0  0
  5 17  1  0  0  0  0
  5 44  1  0  0  0  0
  6 17  2  0  0  0  0
  6 19  1  0  0  0  0
  7 18  1  0  0  0  0
  8 24  1  0  0  0  0
  8 27  1  0  0  0  0
  8 28  1  0  0  0  0
  9 10  1  0  0  0  0
  9 11  1  0  0  0  0
  9 29  1  0  0  0  0
 10 12  1  0  0  0  0
 10 30  1  0  0  0  0
 10 31  1  0  0  0  0
 11 13  1  0  0  0  0
 11 32  1  0  0  0  0
 11 33  1  0  0  0  0
 12 14  1  0  0  0  0
 12 34  1  0  0  0  0
 12 35  1  0  0  0  0
 13 15  1  0  0  0  0
 13 36  1  0  0  0  0
 13 37  1  0  0  0  0
 14 16  1  0  0  0  0
 14 38  1  0  0  0  0
 14 39  1  0  0  0  0
 15 16  1  0  0  0  0
 15 40  1  0  0  0  0
 15 41  1  0  0  0  0
 16 42  1  0  0  0  0
 16 43  1  0  0  0  0
 17 18  1  0  0  0  0
 18 45  1  0  0  0  0
 18 46  1  0  0  0  0
 19 20  1  0  0  0  0
 19 47  1  0  0  0  0
 19 48  1  0  0  0  0
 20 49  1  0  0  0  0
 20 50  1  0  0  0  0
 21 22  1  0  0  0  0
 21 51  1  0  0  0  0
 21 52  1  0  0  0  0
 22 25  2  0  0  0  0
 23 24  1  0  0  0  0
 23 26  2  0  0  0  0
 24 53  1  0  0  0  0
 24 54  1  0  0  0  0
 25 26  1  0  0  0  0
 25 55  1  0  0  0  0
 26 56  1  0  0  0  0
 27 57  1  0  0  0  0
 27 58  1  0  0  0  0
 27 59  1  0  0  0  0
 28 60  1  0  0  0  0
 28 61  1  0  0  0  0
 28 62  1  0  0  0  0
M  CHG  2   3  -1   7   1
M  END
