@<TRIPOS>MOLECULE
lig
 68 71 0 0 0
SMALL
GASTEIGER

@<TRIPOS>ATOM
      1 O          -0.0391   -2.8265    1.1366 O.3     1  UNL11      -0.4585
      2 O           5.3341   -1.7885    3.1386 O.2     1  UNL11      -0.4918
      3 O          -1.8798   -3.3884   -0.1498 O.2     1  UNL11      -0.2468
      4 O          -1.1860   -0.2538    0.9622 O.3     1  UNL11      -0.3698
      5 N           2.8844   -5.4497    1.1055 N.4     1  UNL11       0.2414
      6 C           2.0387   -5.5748    2.3394 C.3     1  UNL11      -0.0269
      7 C           2.3723   -4.6844   -0.0713 C.3     1  UNL11      -0.0269
      8 C           0.9016   -4.5194    2.4838 C.3     1  UNL11       0.0249
      9 C           0.8237   -4.7391   -0.1586 C.3     1  UNL11       0.0249
     10 C           0.1579   -4.2506    1.1647 C.3     1  UNL11       0.1128
     11 C           4.2095   -4.9520    1.4713 C.3     1  UNL11      -0.0272
     12 C           3.0785   -6.8303    0.6652 C.3     1  UNL11      -0.0413
     13 C           4.0735   -3.5814    2.1375 C.3     1  UNL11       0.0217
     14 C           5.4603   -3.0606    2.5203 C.3     1  UNL11       0.0944
     15 C          -1.0874   -2.5077    0.2488 C.2     1  UNL11       0.3488
     16 C          -1.2317   -1.0408   -0.2189 C.3     1  UNL11       0.2134
     17 C          -0.1002   -0.5388   -1.0850 C.3     1  UNL11      -0.0008
     18 C          -2.6293   -0.8926   -0.7746 C.3     1  UNL11      -0.0008
     19 C           6.5577   -1.3290    3.4764 C.3     1  UNL11       0.1205
     20 C           0.2398    0.8491   -0.9191 C.3     1  UNL11      -0.0550
     21 C          -3.7796   -1.3357   -0.0123 C.3     1  UNL11      -0.0550
     22 C           0.5091   -1.3098   -2.1469 C.3     1  UNL11      -0.0550
     23 C          -2.8351   -0.2922   -2.0675 C.3     1  UNL11      -0.0550
     24 C           6.6884   -0.0935    4.0997 C.3     1  UNL11      -0.0199
     25 C           7.6869   -2.0913    3.2008 C.3     1  UNL11      -0.0199
     26 C           1.1277    1.4933   -1.8383 C.3     1  UNL11      -0.0614
     27 C          -5.0936   -1.2710   -0.5627 C.3     1  UNL11      -0.0614
     28 C           1.4023   -0.6671   -3.0660 C.3     1  UNL11      -0.0614
     29 C          -4.1498   -0.1900   -2.6155 C.3     1  UNL11      -0.0614
     30 C           1.6748    0.7289   -2.9137 C.3     1  UNL11      -0.0617
     31 C          -5.2486   -0.7014   -1.8574 C.3     1  UNL11      -0.0617
     32 C           7.9483    0.3797    4.4475 C.3     1  UNL11      -0.0583
     33 C           8.9467   -1.6182    3.5486 C.3     1  UNL11      -0.0583
     34 C           9.0774   -0.3827    4.1720 C.3     1  UNL11      -0.0615
     35 H           1.6126   -6.5769    2.3878 H       1  UNL11       0.0816
     36 H           2.6823   -5.5262    3.2177 H       1  UNL11       0.0816
     37 H           2.6956   -3.6460    0.0020 H       1  UNL11       0.0816
     38 H           2.8199   -5.0649   -0.9894 H       1  UNL11       0.0816
     39 H           0.1909   -4.8522    3.2403 H       1  UNL11       0.0353
     40 H           1.3820   -3.5824    2.7656 H       1  UNL11       0.0353
     41 H           0.4843   -4.1174   -0.9871 H       1  UNL11       0.0353
     42 H           0.5474   -5.7855   -0.2885 H       1  UNL11       0.0353
     43 H          -0.7614   -4.8023    1.3382 H       1  UNL11       0.0737
     44 H           4.6802   -5.6483    2.1654 H       1  UNL11       0.0816
     45 H           4.8236   -4.8612    0.5753 H       1  UNL11       0.0816
     46 H           3.6895   -6.8412   -0.2375 H       1  UNL11       0.0778
     47 H           2.1101   -7.2839    0.4540 H       1  UNL11       0.0778
     48 H           3.5807   -7.3949    1.4507 H       1  UNL11       0.0778
     49 H           3.4594   -3.6722    3.0334 H       1  UNL11       0.0350
     50 H           3.6028   -2.8852    1.4433 H       1  UNL11       0.0350
     51 H           5.9310   -3.7568    3.2144 H       1  UNL11       0.0698
     52 H           6.0744   -2.9698    1.6243 H       1  UNL11       0.0698
     53 H          -0.3313   -0.3995    1.4189 H       1  UNL11       0.2117
     54 H          -0.1546    1.3777   -0.1410 H       1  UNL11       0.0621
     55 H          -3.6474   -1.6992    0.9315 H       1  UNL11       0.0621
     56 H           0.3044   -2.3045   -2.2412 H       1  UNL11       0.0621
     57 H          -2.0371    0.0620   -2.5949 H       1  UNL11       0.0621
     58 H           5.8598    0.4660    4.3019 H       1  UNL11       0.0654
     59 H           7.5910   -2.9980    2.7434 H       1  UNL11       0.0654
     60 H           1.3651    2.4791   -1.7276 H       1  UNL11       0.0618
     61 H          -5.8983   -1.6226   -0.0438 H       1  UNL11       0.0618
     62 H           1.8383   -1.1989   -3.8193 H       1  UNL11       0.0618
     63 H          -4.3016    0.2388   -3.5284 H       1  UNL11       0.0618
     64 H           2.2778    1.1923   -3.5935 H       1  UNL11       0.0618
     65 H          -6.1838   -0.6559   -2.2619 H       1  UNL11       0.0618
     66 H           8.0442    1.2863    4.9049 H       1  UNL11       0.0619
     67 H           9.7753   -2.1776    3.3464 H       1  UNL11       0.0619
     68 H          10.0019   -0.0354    4.4272 H       1  UNL11       0.0618
@<TRIPOS>UNITY_ATOM_ATTR
5 1
charge 1
@<TRIPOS>BOND
     1    10     1    1
     2     1    15    1
     3     2    14    1
     4     2    19    1
     5     3    15    2
     6     4    16    1
     7     4    53    1
     8     5     6    1
     9     5     7    1
    10     5    11    1
    11     5    12    1
    12     6     8    1
    13     6    35    1
    14     6    36    1
    15     7     9    1
    16     7    37    1
    17     7    38    1
    18     8    10    1
    19     8    39    1
    20     8    40    1
    21     9    10    1
    22     9    41    1
    23     9    42    1
    24    10    43    1
    25    11    13    1
    26    11    44    1
    27    11    45    1
    28    12    46    1
    29    12    47    1
    30    12    48    1
    31    13    14    1
    32    13    49    1
    33    13    50    1
    34    14    51    1
    35    14    52    1
    36    15    16    1
    37    16    17    1
    38    16    18    1
    39    17    20   ar
    40    17    22   ar
    41    18    21   ar
    42    18    23   ar
    43    19    24   ar
    44    19    25   ar
    45    20    26   ar
    46    20    54    1
    47    21    27   ar
    48    21    55    1
    49    22    28   ar
    50    22    56    1
    51    23    29   ar
    52    23    57    1
    53    24    32   ar
    54    24    58    1
    55    25    33   ar
    56    25    59    1
    57    26    30   ar
    58    26    60    1
    59    27    31   ar
    60    27    61    1
    61    28    30   ar
    62    28    62    1
    63    29    31   ar
    64    29    63    1
    65    30    64    1
    66    31    65    1
    67    32    34   ar
    68    32    66    1
    69    33    34   ar
    70    33    67    1
    71    34    68    1
