67197004
  Mrv15b2304172506293D          

 68 71  0  0  0  0            999 V2000
   -0.0391   -2.8265    1.1366 O   0  0  0  0  0  0  0  0  0  0  0  0
    5.3341   -1.7885    3.1386 O   0  0  0  0  0  0  0  0  0  0  0  0
   -1.8798   -3.3884   -0.1498 O   0  0  0  0  0  0  0  0  0  0  0  0
   -1.1860   -0.2538    0.9622 O   0  0  0  0  0  0  0  0  0  0  0  0
    2.8844   -5.4497    1.1055 N   0  3  1  0  0  0  0  0  0  0  0  0
    2.0387   -5.5748    2.3394 C   0  0  1  0  0  0  0  0  0  0  0  0
    2.3723   -4.6844   -0.0713 C   0  0  1  0  0  0  0  0  0  0  0  0
    0.9016   -4.5194    2.4838 C   0  0  1  0  0  0  0  0  0  0  0  0
    0.8237   -4.7391   -0.1586 C   0  0  1  0  0  0  0  0  0  0  0  0
    0.1579   -4.2506    1.1647 C   0  0  2  0  0  0  0  0  0  0  0  0
    4.2095   -4.9520    1.4713 C   0  0  1  0  0  0  0  0  0  0  0  0
    3.0785   -6.8303    0.6652 C   0  0  0  0  0  0  0  0  0  0  0  0
    4.0735   -3.5814    2.1375 C   0  0  2  0  0  0  0  0  0  0  0  0
    5.4603   -3.0606    2.5203 C   0  0  2  0  0  0  0  0  0  0  0  0
   -1.0874   -2.5077    0.2488 C   0  0  0  0  0  0  0  0  0  0  0  0
   -1.2317   -1.0408   -0.2189 C   0  0  2  0  0  0  0  0  0  0  0  0
   -0.1002   -0.5388   -1.0850 C   0  0  0  0  0  0  0  0  0  0  0  0
   -2.6293   -0.8926   -0.7746 C   0  0  0  0  0  0  0  0  0  0  0  0
    6.5577   -1.3290    3.4764 C   0  0  0  0  0  0  0  0  0  0  0  0
    0.2398    0.8491   -0.9191 C   0  0  0  0  0  0  0  0  0  0  0  0
   -3.7796   -1.3357   -0.0123 C   0  0  0  0  0  0  0  0  0  0  0  0
    0.5091   -1.3098   -2.1469 C   0  0  0  0  0  0  0  0  0  0  0  0
   -2.8351   -0.2922   -2.0675 C   0  0  0  0  0  0  0  0  0  0  0  0
    6.6884   -0.0935    4.0997 C   0  0  0  0  0  0  0  0  0  0  0  0
    7.6869   -2.0913    3.2008 C   0  0  0  0  0  0  0  0  0  0  0  0
    1.1277    1.4933   -1.8383 C   0  0  0  0  0  0  0  0  0  0  0  0
   -5.0936   -1.2710   -0.5627 C   0  0  0  0  0  0  0  0  0  0  0  0
    1.4023   -0.6671   -3.0660 C   0  0  0  0  0  0  0  0  0  0  0  0
   -4.1498   -0.1900   -2.6155 C   0  0  0  0  0  0  0  0  0  0  0  0
    1.6748    0.7289   -2.9137 C   0  0  0  0  0  0  0  0  0  0  0  0
   -5.2486   -0.7014   -1.8574 C   0  0  0  0  0  0  0  0  0  0  0  0
    7.9483    0.3797    4.4475 C   0  0  0  0  0  0  0  0  0  0  0  0
    8.9467   -1.6182    3.5486 C   0  0  0  0  0  0  0  0  0  0  0  0
    9.0774   -0.3827    4.1720 C   0  0  0  0  0  0  0  0  0  0  0  0
    1.6126   -6.5769    2.3878 H   0  0  0  0  0  0  0  0  0  0  0  0
    2.6823   -5.5262    3.2177 H   0  0  0  0  0  0  0  0  0  0  0  0
    2.6956   -3.6460    0.0020 H   0  0  0  0  0  0  0  0  0  0  0  0
    2.8199   -5.0649   -0.9894 H   0  0  0  0  0  0  0  0  0  0  0  0
    0.1909   -4.8522    3.2403 H   0  0  0  0  0  0  0  0  0  0  0  0
    1.3820   -3.5824    2.7656 H   0  0  0  0  0  0  0  0  0  0  0  0
    0.4843   -4.1174   -0.9871 H   0  0  0  0  0  0  0  0  0  0  0  0
    0.5474   -5.7855   -0.2885 H   0  0  0  0  0  0  0  0  0  0  0  0
   -0.7614   -4.8023    1.3382 H   0  0  0  0  0  0  0  0  0  0  0  0
    4.6802   -5.6483    2.1654 H   0  0  0  0  0  0  0  0  0  0  0  0
    4.8236   -4.8612    0.5753 H   0  0  0  0  0  0  0  0  0  0  0  0
    3.6895   -6.8412   -0.2375 H   0  0  0  0  0  0  0  0  0  0  0  0
    2.1101   -7.2839    0.4540 H   0  0  0  0  0  0  0  0  0  0  0  0
    3.5807   -7.3949    1.4507 H   0  0  0  0  0  0  0  0  0  0  0  0
    3.4594   -3.6722    3.0334 H   0  0  0  0  0  0  0  0  0  0  0  0
    3.6028   -2.8852    1.4433 H   0  0  0  0  0  0  0  0  0  0  0  0
    5.9310   -3.7568    3.2144 H   0  0  0  0  0  0  0  0  0  0  0  0
    6.0744   -2.9698    1.6243 H   0  0  0  0  0  0  0  0  0  0  0  0
   -0.3313   -0.3995    1.4189 H   0  0  0  0  0  0  0  0  0  0  0  0
   -0.1546    1.3777   -0.1410 H   0  0  0  0  0  0  0  0  0  0  0  0
   -3.6474   -1.6992    0.9315 H   0  0  0  0  0  0  0  0  0  0  0  0
    0.3044   -2.3045   -2.2412 H   0  0  0  0  0  0  0  0  0  0  0  0
   -2.0371    0.0620   -2.5949 H   0  0  0  0  0  0  0  0  0  0  0  0
    5.8598    0.4660    4.3019 H   0  0  0  0  0  0  0  0  0  0  0  0
    7.5910   -2.9980    2.7434 H   0  0  0  0  0  0  0  0  0  0  0  0
    1.3651    2.4791   -1.7276 H   0  0  0  0  0  0  0  0  0  0  0  0
   -5.8983   -1.6226   -0.0438 H   0  0  0  0  0  0  0  0  0  0  0  0
    1.8383   -1.1989   -3.8193 H   0  0  0  0  0  0  0  0  0  0  0  0
   -4.3016    0.2388   -3.5284 H   0  0  0  0  0  0  0  0  0  0  0  0
    2.2778    1.1923   -3.5935 H   0  0  0  0  0  0  0  0  0  0  0  0
   -6.1838   -0.6559   -2.2619 H   0  0  0  0  0  0  0  0  0  0  0  0
    8.0442    1.2863    4.9049 H   0  0  0  0  0  0  0  0  0  0  0  0
    9.7753   -2.1776    3.3464 H   0  0  0  0  0  0  0  0  0  0  0  0
   10.0019   -0.0354    4.4272 H   0  0  0  0  0  0  0  0  0  0  0  0
 10  1  1  0  0  0  0
  1 15  1  0  0  0  0
  2 14  1  0  0  0  0
  2 19  1  0  0  0  0
  3 15  2  0  0  0  0
  4 16  1  0  0  0  0
  4 53  1  0  0  0  0
  5  6  1  0  0  0  0
  5  7  1  0  0  0  0
  5 11  1  0  0  0  0
  5 12  1  0  0  0  0
  6  8  1  0  0  0  0
  6 35  1  0  0  0  0
  6 36  1  0  0  0  0
  7  9  1  0  0  0  0
  7 37  1  0  0  0  0
  7 38  1  0  0  0  0
  8 10  1  0  0  0  0
  8 39  1  0  0  0  0
  8 40  1  0  0  0  0
  9 10  1  0  0  0  0
  9 41  1  0  0  0  0
  9 42  1  0  0  0  0
 10 43  1  0  0  0  0
 11 13  1  0  0  0  0
 11 44  1  0  0  0  0
 11 45  1  0  0  0  0
 12 46  1  0  0  0  0
 12 47  1  0  0  0  0
 12 48  1  0  0  0  0
 13 14  1  0  0  0  0
 13 49  1  0  0  0  0
 13 50  1  0  0  0  0
 14 51  1  0  0  0  0
 14 52  1  0  0  0  0
 15 16  1  0  0  0  0
 16 17  1  0  0  0  0
 16 18  1  0  0  0  0
 17 20  2  0  0  0  0
 17 22  1  0  0  0  0
 18 21  2  0  0  0  0
 18 23  1  0  0  0  0
 19 24  2  0  0  0  0
 19 25  1  0  0  0  0
 20 26  1  0  0  0  0
 20 54  1  0  0  0  0
 21 27  1  0  0  0  0
 21 55  1  0  0  0  0
 22 28  2  0  0  0  0
 22 56  1  0  0  0  0
 23 29  2  0  0  0  0
 23 57  1  0  0  0  0
 24 32  1  0  0  0  0
 24 58  1  0  0  0  0
 25 33  2  0  0  0  0
 25 59  1  0  0  0  0
 26 30  2  0  0  0  0
 26 60  1  0  0  0  0
 27 31  2  0  0  0  0
 27 61  1  0  0  0  0
 28 30  1  0  0  0  0
 28 62  1  0  0  0  0
 29 31  1  0  0  0  0
 29 63  1  0  0  0  0
 30 64  1  0  0  0  0
 31 65  1  0  0  0  0
 32 34  2  0  0  0  0
 32 66  1  0  0  0  0
 33 34  1  0  0  0  0
 33 67  1  0  0  0  0
 34 68  1  0  0  0  0
M  CHG  1   5   1
M  END
