67197004
  MJ221101                      

 68 71  0  0  0  0  0  0  0  0999 V2000
   -0.2942   -1.6953    0.0000 O   0  0  0  0  0  0  0  0  0  0  0  0
   -0.3940    3.6358    0.0000 O   0  0  0  0  0  0  0  0  0  0  0  0
   -1.7232   -1.6953    0.0000 O   0  0  0  0  0  0  0  0  0  0  0  0
   -1.8337   -2.9328    0.0000 O   0  0  0  0  0  0  0  0  0  0  0  0
   -0.2942    0.7796    0.0000 N   0  3  0  0  0  0  0  0  0  0  0  0
    0.4202    0.3672    0.0000 C   0  0  0  0  0  0  0  0  0  0  0  0
   -1.0087    0.3672    0.0000 C   0  0  0  0  0  0  0  0  0  0  0  0
    0.4202   -0.4578    0.0000 C   0  0  0  0  0  0  0  0  0  0  0  0
   -1.0087   -0.4578    0.0000 C   0  0  0  0  0  0  0  0  0  0  0  0
   -0.2942   -0.8703    0.0000 C   0  0  0  0  0  0  0  0  0  0  0  0
    0.0931    1.5081    0.0000 C   0  0  0  0  0  0  0  0  0  0  0  0
   -0.6816    1.5081    0.0000 C   0  0  0  0  0  0  0  0  0  0  0  0
   -0.3441    2.2077    0.0000 C   0  0  0  0  0  0  0  0  0  0  0  0
    0.0432    2.9362    0.0000 C   0  0  0  0  0  0  0  0  0  0  0  0
   -1.0087   -2.1078    0.0000 C   0  0  0  0  0  0  0  0  0  0  0  0
   -1.0087   -2.9328    0.0000 C   0  0  0  0  0  0  0  0  0  0  0  0
   -1.0087   -3.7578    0.0000 C   0  0  0  0  0  0  0  0  0  0  0  0
   -0.1837   -2.9328    0.0000 C   0  0  0  0  0  0  0  0  0  0  0  0
   -0.0067    4.3643    0.0000 C   0  0  0  0  0  0  0  0  0  0  0  0
   -0.2942   -4.1703    0.0000 C   0  0  0  0  0  0  0  0  0  0  0  0
    0.2288   -2.2183    0.0000 C   0  0  0  0  0  0  0  0  0  0  0  0
   -1.7232   -4.1703    0.0000 C   0  0  0  0  0  0  0  0  0  0  0  0
    0.2288   -3.6473    0.0000 C   0  0  0  0  0  0  0  0  0  0  0  0
   -0.4438    5.0639    0.0000 C   0  0  0  0  0  0  0  0  0  0  0  0
    0.8178    4.3930    0.0000 C   0  0  0  0  0  0  0  0  0  0  0  0
   -0.2942   -4.9953    0.0000 C   0  0  0  0  0  0  0  0  0  0  0  0
    1.0538   -2.2183    0.0000 C   0  0  0  0  0  0  0  0  0  0  0  0
   -1.7232   -4.9953    0.0000 C   0  0  0  0  0  0  0  0  0  0  0  0
    1.0538   -3.6473    0.0000 C   0  0  0  0  0  0  0  0  0  0  0  0
   -1.0087   -5.4078    0.0000 C   0  0  0  0  0  0  0  0  0  0  0  0
    1.4663   -2.9328    0.0000 C   0  0  0  0  0  0  0  0  0  0  0  0
   -0.0565    5.7923    0.0000 C   0  0  0  0  0  0  0  0  0  0  0  0
    1.2051    5.1215    0.0000 C   0  0  0  0  0  0  0  0  0  0  0  0
    0.7680    5.8211    0.0000 C   0  0  0  0  0  0  0  0  0  0  0  0
    1.2438    0.4152    0.0000 H   0  0  0  0  0  0  0  0  0  0  0  0
    0.8736    1.0565    0.0000 H   0  0  0  0  0  0  0  0  0  0  0  0
   -1.4621    1.0565    0.0000 H   0  0  0  0  0  0  0  0  0  0  0  0
   -1.8323    0.4152    0.0000 H   0  0  0  0  0  0  0  0  0  0  0  0
    0.8736   -1.1471    0.0000 H   0  0  0  0  0  0  0  0  0  0  0  0
    1.2438   -0.5058    0.0000 H   0  0  0  0  0  0  0  0  0  0  0  0
   -1.8323   -0.5058    0.0000 H   0  0  0  0  0  0  0  0  0  0  0  0
   -1.4621   -1.1471    0.0000 H   0  0  0  0  0  0  0  0  0  0  0  0
   -1.0087   -1.2828    0.0000 H   0  0  0  0  0  0  0  0  0  0  0  0
    0.8652    1.7988    0.0000 H   0  0  0  0  0  0  0  0  0  0  0  0
    0.3574    2.2896    0.0000 H   0  0  0  0  0  0  0  0  0  0  0  0
   -1.0020    2.2684    0.0000 H   0  0  0  0  0  0  0  0  0  0  0  0
   -1.4637    1.7705    0.0000 H   0  0  0  0  0  0  0  0  0  0  0  0
   -0.9086    0.7150    0.0000 H   0  0  0  0  0  0  0  0  0  0  0  0
   -0.4814    3.0213    0.0000 H   0  0  0  0  0  0  0  0  0  0  0  0
   -0.9490    2.7687    0.0000 H   0  0  0  0  0  0  0  0  0  0  0  0
    0.8596    3.0549    0.0000 H   0  0  0  0  0  0  0  0  0  0  0  0
    0.5775    3.5648    0.0000 H   0  0  0  0  0  0  0  0  0  0  0  0
   -2.2462   -2.2183    0.0000 H   0  0  0  0  0  0  0  0  0  0  0  0
    0.4680   -4.4860    0.0000 H   0  0  0  0  0  0  0  0  0  0  0  0
    0.5445   -1.4561    0.0000 H   0  0  0  0  0  0  0  0  0  0  0  0
   -2.4377   -3.7578    0.0000 H   0  0  0  0  0  0  0  0  0  0  0  0
   -0.5891   -3.5396    0.0000 H   0  0  0  0  0  0  0  0  0  0  0  0
   -1.2683    5.0351    0.0000 H   0  0  0  0  0  0  0  0  0  0  0  0
    1.5823    4.0828    0.0000 H   0  0  0  0  0  0  0  0  0  0  0  0
    0.1414   -5.6959    0.0000 H   0  0  0  0  0  0  0  0  0  0  0  0
    1.7544   -1.7827    0.0000 H   0  0  0  0  0  0  0  0  0  0  0  0
   -2.4377   -5.4078    0.0000 H   0  0  0  0  0  0  0  0  0  0  0  0
    1.4663   -4.3617    0.0000 H   0  0  0  0  0  0  0  0  0  0  0  0
   -1.0087   -6.2328    0.0000 H   0  0  0  0  0  0  0  0  0  0  0  0
    2.2912   -2.9328    0.0000 H   0  0  0  0  0  0  0  0  0  0  0  0
   -0.4937    6.4920    0.0000 H   0  0  0  0  0  0  0  0  0  0  0  0
    2.0296    5.1503    0.0000 H   0  0  0  0  0  0  0  0  0  0  0  0
    1.1553    6.5496    0.0000 H   0  0  0  0  0  0  0  0  0  0  0  0
 10  1  1  1  0  0  0
  1 15  1  0  0  0  0
  2 14  1  0  0  0  0
  2 19  1  0  0  0  0
  3 15  2  0  0  0  0
  4 16  1  0  0  0  0
  4 53  1  0  0  0  0
  5  6  1  0  0  0  0
  5  7  1  0  0  0  0
  5 11  1  1  0  0  0
  5 12  1  6  0  0  0
  6  8  1  0  0  0  0
  6 35  1  0  0  0  0
  6 36  1  0  0  0  0
  7  9  1  0  0  0  0
  7 37  1  0  0  0  0
  7 38  1  0  0  0  0
  8 10  1  0  0  0  0
  8 39  1  0  0  0  0
  8 40  1  0  0  0  0
  9 10  1  0  0  0  0
  9 41  1  0  0  0  0
  9 42  1  0  0  0  0
 10 43  1  6  0  0  0
 11 13  1  0  0  0  0
 11 44  1  0  0  0  0
 11 45  1  0  0  0  0
 12 46  1  0  0  0  0
 12 47  1  0  0  0  0
 12 48  1  0  0  0  0
 13 14  1  0  0  0  0
 13 49  1  0  0  0  0
 13 50  1  0  0  0  0
 14 51  1  0  0  0  0
 14 52  1  0  0  0  0
 15 16  1  0  0  0  0
 16 17  1  0  0  0  0
 16 18  1  0  0  0  0
 17 20  2  3  0  0  0
 17 22  1  0  0  0  0
 18 21  2  3  0  0  0
 18 23  1  0  0  0  0
 19 24  2  0  0  0  0
 19 25  1  0  0  0  0
 20 26  1  0  0  0  0
 20 54  1  0  0  0  0
 21 27  1  0  0  0  0
 21 55  1  0  0  0  0
 22 28  2  0  0  0  0
 22 56  1  0  0  0  0
 23 29  2  3  0  0  0
 23 57  1  0  0  0  0
 24 32  1  0  0  0  0
 24 58  1  0  0  0  0
 25 33  2  0  0  0  0
 25 59  1  0  0  0  0
 26 30  2  0  0  0  0
 26 60  1  0  0  0  0
 27 31  2  0  0  0  0
 27 61  1  0  0  0  0
 28 30  1  0  0  0  0
 28 62  1  0  0  0  0
 29 31  1  0  0  0  0
 29 63  1  0  0  0  0
 30 64  1  0  0  0  0
 31 65  1  0  0  0  0
 32 34  2  0  0  0  0
 32 66  1  0  0  0  0
 33 34  1  0  0  0  0
 33 67  1  0  0  0  0
 34 68  1  0  0  0  0
M  END
