67197004
  -OEChem-04172506293D

 68 71  0     0  0  0  0  0  0999 V2000
    1.2525   -0.4563   -0.3718 O   0  0  0  0  0  0  0  0  0  0  0  0
   -6.2810   -0.3114   -0.2727 O   0  0  0  0  0  0  0  0  0  0  0  0
    3.1111   -1.7539   -0.7584 O   0  0  0  0  0  0  0  0  0  0  0  0
    2.3072    0.9811    1.1057 O   0  0  0  0  0  0  0  0  0  0  0  0
   -2.1850   -2.8824   -0.9080 N   0  3  0  0  0  0  0  0  0  0  0  0
   -1.7891   -1.9235   -2.0371 C   0  0  0  0  0  0  0  0  0  0  0  0
   -0.9407   -3.5024   -0.2609 C   0  0  0  0  0  0  0  0  0  0  0  0
   -0.8055   -0.8641   -1.5599 C   0  0  0  0  0  0  0  0  0  0  0  0
    0.0402   -2.4381    0.2107 C   0  0  0  0  0  0  0  0  0  0  0  0
    0.4271   -1.4828   -0.9109 C   0  0  0  0  0  0  0  0  0  0  0  0
   -3.0599   -2.1827    0.1317 C   0  0  0  0  0  0  0  0  0  0  0  0
   -3.0197   -4.0162   -1.5173 C   0  0  0  0  0  0  0  0  0  0  0  0
   -4.2581   -1.5598   -0.5639 C   0  0  0  0  0  0  0  0  0  0  0  0
   -5.1901   -0.8865    0.4333 C   0  0  0  0  0  0  0  0  0  0  0  0
    2.6007   -0.7174   -0.3504 C   0  0  0  0  0  0  0  0  0  0  0  0
    3.3671    0.4434    0.2889 C   0  0  0  0  0  0  0  0  0  0  0  0
    3.8508    1.4959   -0.7114 C   0  0  0  0  0  0  0  0  0  0  0  0
    4.5162   -0.0287    1.1825 C   0  0  0  0  0  0  0  0  0  0  0  0
   -6.8609    0.7991    0.2835 C   0  0  0  0  0  0  0  0  0  0  0  0
    4.4056    2.6909   -0.2533 C   0  0  0  0  0  0  0  0  0  0  0  0
    5.6414   -0.6265    0.6148 C   0  0  0  0  0  0  0  0  0  0  0  0
    3.7367    1.2601   -2.0814 C   0  0  0  0  0  0  0  0  0  0  0  0
    4.4382    0.1389    2.5650 C   0  0  0  0  0  0  0  0  0  0  0  0
   -6.8634    0.9652    1.6685 C   0  0  0  0  0  0  0  0  0  0  0  0
   -7.4485    1.7633   -0.5355 C   0  0  0  0  0  0  0  0  0  0  0  0
    4.8462    3.6502   -1.1651 C   0  0  0  0  0  0  0  0  0  0  0  0
    6.6886   -1.0567    1.4296 C   0  0  0  0  0  0  0  0  0  0  0  0
    4.1774    2.2192   -2.9932 C   0  0  0  0  0  0  0  0  0  0  0  0
    5.4854   -0.2913    3.3798 C   0  0  0  0  0  0  0  0  0  0  0  0
    4.7321    3.4143   -2.5351 C   0  0  0  0  0  0  0  0  0  0  0  0
    6.6106   -0.8891    2.8122 C   0  0  0  0  0  0  0  0  0  0  0  0
   -7.4535    2.0953    2.2344 C   0  0  0  0  0  0  0  0  0  0  0  0
   -8.0385    2.8933    0.0304 C   0  0  0  0  0  0  0  0  0  0  0  0
   -8.0411    3.0594    1.4153 C   0  0  0  0  0  0  0  0  0  0  0  0
   -2.6699   -1.5046   -2.5267 H   0  0  0  0  0  0  0  0  0  0  0  0
   -1.2926   -2.5457   -2.7944 H   0  0  0  0  0  0  0  0  0  0  0  0
   -0.4647   -4.1412   -1.0146 H   0  0  0  0  0  0  0  0  0  0  0  0
   -1.2773   -4.1310    0.5711 H   0  0  0  0  0  0  0  0  0  0  0  0
   -1.2885   -0.1655   -0.8662 H   0  0  0  0  0  0  0  0  0  0  0  0
   -0.4907   -0.2474   -2.4110 H   0  0  0  0  0  0  0  0  0  0  0  0
    0.9388   -2.9303    0.6029 H   0  0  0  0  0  0  0  0  0  0  0  0
   -0.3647   -1.8779    1.0620 H   0  0  0  0  0  0  0  0  0  0  0  0
    0.9631   -2.0356   -1.6943 H   0  0  0  0  0  0  0  0  0  0  0  0
   -3.3626   -2.9316    0.8729 H   0  0  0  0  0  0  0  0  0  0  0  0
   -2.4643   -1.4171    0.6360 H   0  0  0  0  0  0  0  0  0  0  0  0
   -3.4789   -4.5932   -0.7093 H   0  0  0  0  0  0  0  0  0  0  0  0
   -2.3479   -4.6601   -2.0947 H   0  0  0  0  0  0  0  0  0  0  0  0
   -3.7676   -3.6089   -2.2012 H   0  0  0  0  0  0  0  0  0  0  0  0
   -4.8595   -2.2827   -1.1214 H   0  0  0  0  0  0  0  0  0  0  0  0
   -3.9706   -0.7757   -1.2700 H   0  0  0  0  0  0  0  0  0  0  0  0
   -4.6110   -0.1260    0.9737 H   0  0  0  0  0  0  0  0  0  0  0  0
   -5.5744   -1.6252    1.1463 H   0  0  0  0  0  0  0  0  0  0  0  0
    1.7602    1.5663    0.5536 H   0  0  0  0  0  0  0  0  0  0  0  0
    4.4961    2.8945    0.8103 H   0  0  0  0  0  0  0  0  0  0  0  0
    5.7215   -0.7668   -0.4598 H   0  0  0  0  0  0  0  0  0  0  0  0
    3.3156    0.3439   -2.4821 H   0  0  0  0  0  0  0  0  0  0  0  0
    3.5812    0.6008    3.0455 H   0  0  0  0  0  0  0  0  0  0  0  0
   -6.4418    0.2258    2.3428 H   0  0  0  0  0  0  0  0  0  0  0  0
   -7.4494    1.6392   -1.6150 H   0  0  0  0  0  0  0  0  0  0  0  0
    5.2767    4.5813   -0.8085 H   0  0  0  0  0  0  0  0  0  0  0  0
    7.5647   -1.5223    0.9877 H   0  0  0  0  0  0  0  0  0  0  0  0
    4.0896    2.0358   -4.0601 H   0  0  0  0  0  0  0  0  0  0  0  0
    5.4254   -0.1606    4.4564 H   0  0  0  0  0  0  0  0  0  0  0  0
    5.0751    4.1611   -3.2451 H   0  0  0  0  0  0  0  0  0  0  0  0
    7.4260   -1.2240    3.4467 H   0  0  0  0  0  0  0  0  0  0  0  0
   -7.4614    2.2220    3.3131 H   0  0  0  0  0  0  0  0  0  0  0  0
   -8.4963    3.6439   -0.6073 H   0  0  0  0  0  0  0  0  0  0  0  0
   -8.5019    3.9386    1.8560 H   0  0  0  0  0  0  0  0  0  0  0  0
  1 10  1  0  0  0  0
  1 15  1  0  0  0  0
  2 14  1  0  0  0  0
  2 19  1  0  0  0  0
  3 15  2  0  0  0  0
  4 16  1  0  0  0  0
  4 53  1  0  0  0  0
  5  6  1  0  0  0  0
  5  7  1  0  0  0  0
  5 11  1  0  0  0  0
  5 12  1  0  0  0  0
  6  8  1  0  0  0  0
  6 35  1  0  0  0  0
  6 36  1  0  0  0  0
  7  9  1  0  0  0  0
  7 37  1  0  0  0  0
  7 38  1  0  0  0  0
  8 10  1  0  0  0  0
  8 39  1  0  0  0  0
  8 40  1  0  0  0  0
  9 10  1  0  0  0  0
  9 41  1  0  0  0  0
  9 42  1  0  0  0  0
 10 43  1  0  0  0  0
 11 13  1  0  0  0  0
 11 44  1  0  0  0  0
 11 45  1  0  0  0  0
 12 46  1  0  0  0  0
 12 47  1  0  0  0  0
 12 48  1  0  0  0  0
 13 14  1  0  0  0  0
 13 49  1  0  0  0  0
 13 50  1  0  0  0  0
 14 51  1  0  0  0  0
 14 52  1  0  0  0  0
 15 16  1  0  0  0  0
 16 17  1  0  0  0  0
 16 18  1  0  0  0  0
 17 20  2  0  0  0  0
 17 22  1  0  0  0  0
 18 21  2  0  0  0  0
 18 23  1  0  0  0  0
 19 24  2  0  0  0  0
 19 25  1  0  0  0  0
 20 26  1  0  0  0  0
 20 54  1  0  0  0  0
 21 27  1  0  0  0  0
 21 55  1  0  0  0  0
 22 28  2  0  0  0  0
 22 56  1  0  0  0  0
 23 29  2  0  0  0  0
 23 57  1  0  0  0  0
 24 32  1  0  0  0  0
 24 58  1  0  0  0  0
 25 33  2  0  0  0  0
 25 59  1  0  0  0  0
 26 30  2  0  0  0  0
 26 60  1  0  0  0  0
 27 31  2  0  0  0  0
 27 61  1  0  0  0  0
 28 30  1  0  0  0  0
 28 62  1  0  0  0  0
 29 31  1  0  0  0  0
 29 63  1  0  0  0  0
 30 64  1  0  0  0  0
 31 65  1  0  0  0  0
 32 34  2  0  0  0  0
 32 66  1  0  0  0  0
 33 34  1  0  0  0  0
 33 67  1  0  0  0  0
 34 68  1  0  0  0  0
M  CHG  1   5   1
M  END
> <PUBCHEM_COMPOUND_CID>
67197004

> <PUBCHEM_CONFORMER_RMSD>
1.2

> <PUBCHEM_CONFORMER_DIVERSEORDER>
6
116
102
166
145
174
210
49
132
159
14
104
93
202
119
204
118
213
203
59
7
177
176
147
91
97
96
95
158
155
186
125
84
126
178
169
211
121
124
43
175
1
80
57
58
55
173
179
123
144
50
207
209
197
136
160
141
51
106
134
201
56
206
5
38
163
92
181
187
77
71
82
109
164
19
171
40
127
16
162
101
192
195
18
156
110
182
161
208
151
20
83
216
129
37
190
28
21
65
138
157
68
189
185
31
41
140
34
25
205
152
111
17
115
153
13
100
81
23
214
148
128
10
133
170
200
196
61
137
212
63
172
167
85
199
75
94
117
44
35
66
183
112
215
107
24
3
46
39
114
70
188
12
62
113
130
146
120
198
74
139
99
29
88
53
9
86
150
79
72
22
184
154
103
193
54
87
142
67
36
168
165
73
143
45
105
135
108
98
8
33
47
90
78
76
11
26
194
15
27
48
149
32
69
191
131
42
52
89
64
2
122
180
4
60
30

> <PUBCHEM_MMFF94_PARTIAL_CHARGES>
47
1 -0.43
10 0.28
11 0.5
12 0.5
14 0.28
15 0.66
16 0.63
17 -0.14
18 -0.14
19 0.08
2 -0.36
20 -0.15
21 -0.15
22 -0.15
23 -0.15
24 -0.15
25 -0.15
26 -0.15
27 -0.15
28 -0.15
29 -0.15
3 -0.57
30 -0.15
31 -0.15
32 -0.15
33 -0.15
34 -0.15
4 -0.68
5 -1.01
53 0.4
54 0.15
55 0.15
56 0.15
57 0.15
58 0.15
59 0.15
6 0.5
60 0.15
61 0.15
62 0.15
63 0.15
64 0.15
65 0.15
66 0.15
67 0.15
68 0.15
7 0.5

> <PUBCHEM_EFFECTIVE_ROTOR_COUNT>
11.2

> <PUBCHEM_PHARMACOPHORE_FEATURES>
9
1 2 acceptor
1 3 acceptor
1 4 acceptor
1 4 donor
1 5 cation
6 17 20 22 26 28 30 rings
6 18 21 23 27 29 31 rings
6 19 24 25 32 33 34 rings
6 5 6 7 8 9 10 rings

> <PUBCHEM_HEAVY_ATOM_COUNT>
34

> <PUBCHEM_ATOM_DEF_STEREO_COUNT>
0

> <PUBCHEM_ATOM_UDEF_STEREO_COUNT>
0

> <PUBCHEM_BOND_DEF_STEREO_COUNT>
0

> <PUBCHEM_BOND_UDEF_STEREO_COUNT>
0

> <PUBCHEM_ISOTOPIC_ATOM_COUNT>
0

> <PUBCHEM_COMPONENT_COUNT>
1

> <PUBCHEM_CACTVS_TAUTO_COUNT>
1

> <PUBCHEM_CONFORMER_ID>
0401584C00000006

> <PUBCHEM_MMFF94_ENERGY>
112.0152

> <PUBCHEM_FEATURE_SELFOVERLAP>
45.672

> <PUBCHEM_SHAPE_FINGERPRINT>
10533779 1 18058721387669122273
11115154 58 18334866013728366100
11475781 23 16988563506821618449
11497681 19 9295297148790525138
117089 54 11170498798820654241
12107183 9 18335410288188220098
12342043 65 15068889816275048418
12975358 362 18125742097613311841
13782708 43 12107785242259476367
14190465 44 18201432618942443059
15238133 3 18272367620282904386
16989378 47 9655283827404236331
16992779 147 17313960747769152684
19053607 189 18201726158492831159
19302320 297 18259991457377013389
20691028 202 18343305826074813005
21223535 225 17417796354148020909
21585481 104 13758090554465496419
21599406 157 14045739323073190349
21647283 7 17894918417263368937
22033318 11 18114183021088310385
23522609 53 18115315608390673694
23559900 14 13684917089264294846
23569914 152 17557173643271401428
249057 25 18265600151804867007
2748736 6 18413107256538624861
2838139 119 17846206792066706507
3918712 181 18272375274052588233
393628 179 17631998781455330329
44249763 50 17059769027178379159
44880568 143 15123517969612251249
4756326 101 15338251499358347250
5104073 3 17896034510878952122
5470011 282 13039185901667224153
57724786 102 17968935422230447598
6058803 2 17900537084357240478
6176135 31 18409729530547055357
6712543 237 15574722426352382489
9555976 147 18265325295135635395
999808 66 13767926789540207763

> <PUBCHEM_SHAPE_MULTIPOLES>
671.25
24.11
4.57
2.88
40.62
0.45
-0.97
20.73
-14.11
2.84
2.65
-4.77
0.92
-7.55

> <PUBCHEM_SHAPE_SELFOVERLAP>
1429.173

> <PUBCHEM_SHAPE_VOLUME>
371

> <PUBCHEM_COORDINATE_TYPE>
2
5
10

$$$$
