lig
 OpenBabel04172506293D

 68 71  0  0  0  0  0  0  0  0999 V2000
    1.2525   -0.4563   -0.3718 O   0  0  0  0  0  0  0  0  0  0  0  0
   -6.2810   -0.3114   -0.2727 O   0  0  0  0  0  0  0  0  0  0  0  0
    3.1111   -1.7539   -0.7584 O   0  0  0  0  0  0  0  0  0  0  0  0
    2.3072    0.9811    1.1057 O   0  0  0  0  0  0  0  0  0  0  0  0
   -2.1850   -2.8824   -0.9080 N   0  3  1  0  0  0  0  0  0  0  0  0
   -1.7891   -1.9235   -2.0371 C   0  0  0  0  0  0  0  0  0  0  0  0
   -0.9407   -3.5024   -0.2609 C   0  0  0  0  0  0  0  0  0  0  0  0
   -0.8055   -0.8641   -1.5599 C   0  0  0  0  0  0  0  0  0  0  0  0
    0.0402   -2.4381    0.2107 C   0  0  0  0  0  0  0  0  0  0  0  0
    0.4271   -1.4828   -0.9109 C   0  0  2  0  0  0  0  0  0  0  0  0
   -3.0599   -2.1827    0.1317 C   0  0  0  0  0  0  0  0  0  0  0  0
   -3.0197   -4.0162   -1.5173 C   0  0  0  0  0  0  0  0  0  0  0  0
   -4.2581   -1.5598   -0.5639 C   0  0  0  0  0  0  0  0  0  0  0  0
   -5.1901   -0.8865    0.4333 C   0  0  0  0  0  0  0  0  0  0  0  0
    2.6007   -0.7174   -0.3504 C   0  0  0  0  0  0  0  0  0  0  0  0
    3.3671    0.4434    0.2889 C   0  0  0  0  0  0  0  0  0  0  0  0
    3.8508    1.4959   -0.7114 C   0  0  0  0  0  0  0  0  0  0  0  0
    4.5162   -0.0287    1.1825 C   0  0  0  0  0  0  0  0  0  0  0  0
   -6.8609    0.7991    0.2835 C   0  0  0  0  0  0  0  0  0  0  0  0
    4.4056    2.6909   -0.2533 C   0  0  0  0  0  0  0  0  0  0  0  0
    5.6414   -0.6265    0.6148 C   0  0  0  0  0  0  0  0  0  0  0  0
    3.7367    1.2601   -2.0814 C   0  0  0  0  0  0  0  0  0  0  0  0
    4.4382    0.1389    2.5650 C   0  0  0  0  0  0  0  0  0  0  0  0
   -6.8634    0.9652    1.6685 C   0  0  0  0  0  0  0  0  0  0  0  0
   -7.4485    1.7633   -0.5355 C   0  0  0  0  0  0  0  0  0  0  0  0
    4.8462    3.6502   -1.1651 C   0  0  0  0  0  0  0  0  0  0  0  0
    6.6886   -1.0567    1.4296 C   0  0  0  0  0  0  0  0  0  0  0  0
    4.1774    2.2192   -2.9932 C   0  0  0  0  0  0  0  0  0  0  0  0
    5.4854   -0.2913    3.3798 C   0  0  0  0  0  0  0  0  0  0  0  0
    4.7321    3.4143   -2.5351 C   0  0  0  0  0  0  0  0  0  0  0  0
    6.6106   -0.8891    2.8122 C   0  0  0  0  0  0  0  0  0  0  0  0
   -7.4535    2.0953    2.2344 C   0  0  0  0  0  0  0  0  0  0  0  0
   -8.0385    2.8933    0.0304 C   0  0  0  0  0  0  0  0  0  0  0  0
   -8.0411    3.0594    1.4153 C   0  0  0  0  0  0  0  0  0  0  0  0
   -2.6699   -1.5046   -2.5267 H   0  0  0  0  0  0  0  0  0  0  0  0
   -1.2926   -2.5457   -2.7944 H   0  0  0  0  0  0  0  0  0  0  0  0
   -0.4647   -4.1412   -1.0146 H   0  0  0  0  0  0  0  0  0  0  0  0
   -1.2773   -4.1310    0.5711 H   0  0  0  0  0  0  0  0  0  0  0  0
   -1.2885   -0.1655   -0.8662 H   0  0  0  0  0  0  0  0  0  0  0  0
   -0.4907   -0.2474   -2.4110 H   0  0  0  0  0  0  0  0  0  0  0  0
    0.9388   -2.9303    0.6029 H   0  0  0  0  0  0  0  0  0  0  0  0
   -0.3647   -1.8779    1.0620 H   0  0  0  0  0  0  0  0  0  0  0  0
    0.9631   -2.0356   -1.6943 H   0  0  0  0  0  0  0  0  0  0  0  0
   -3.3626   -2.9316    0.8729 H   0  0  0  0  0  0  0  0  0  0  0  0
   -2.4643   -1.4171    0.6360 H   0  0  0  0  0  0  0  0  0  0  0  0
   -3.4789   -4.5932   -0.7093 H   0  0  0  0  0  0  0  0  0  0  0  0
   -2.3479   -4.6601   -2.0947 H   0  0  0  0  0  0  0  0  0  0  0  0
   -3.7676   -3.6089   -2.2012 H   0  0  0  0  0  0  0  0  0  0  0  0
   -4.8595   -2.2827   -1.1214 H   0  0  0  0  0  0  0  0  0  0  0  0
   -3.9706   -0.7757   -1.2700 H   0  0  0  0  0  0  0  0  0  0  0  0
   -4.6110   -0.1260    0.9737 H   0  0  0  0  0  0  0  0  0  0  0  0
   -5.5744   -1.6252    1.1463 H   0  0  0  0  0  0  0  0  0  0  0  0
    1.7602    1.5663    0.5536 H   0  0  0  0  0  0  0  0  0  0  0  0
    4.4961    2.8945    0.8103 H   0  0  0  0  0  0  0  0  0  0  0  0
    5.7215   -0.7668   -0.4598 H   0  0  0  0  0  0  0  0  0  0  0  0
    3.3156    0.3439   -2.4821 H   0  0  0  0  0  0  0  0  0  0  0  0
    3.5812    0.6008    3.0455 H   0  0  0  0  0  0  0  0  0  0  0  0
   -6.4418    0.2258    2.3428 H   0  0  0  0  0  0  0  0  0  0  0  0
   -7.4494    1.6392   -1.6150 H   0  0  0  0  0  0  0  0  0  0  0  0
    5.2767    4.5813   -0.8085 H   0  0  0  0  0  0  0  0  0  0  0  0
    7.5647   -1.5223    0.9877 H   0  0  0  0  0  0  0  0  0  0  0  0
    4.0896    2.0358   -4.0601 H   0  0  0  0  0  0  0  0  0  0  0  0
    5.4254   -0.1606    4.4564 H   0  0  0  0  0  0  0  0  0  0  0  0
    5.0751    4.1611   -3.2451 H   0  0  0  0  0  0  0  0  0  0  0  0
    7.4260   -1.2240    3.4467 H   0  0  0  0  0  0  0  0  0  0  0  0
   -7.4614    2.2220    3.3131 H   0  0  0  0  0  0  0  0  0  0  0  0
   -8.4963    3.6439   -0.6073 H   0  0  0  0  0  0  0  0  0  0  0  0
   -8.5019    3.9386    1.8560 H   0  0  0  0  0  0  0  0  0  0  0  0
  1 10  1  0  0  0  0
  1 15  1  0  0  0  0
  2 14  1  0  0  0  0
  2 19  1  0  0  0  0
  3 15  2  0  0  0  0
  4 16  1  0  0  0  0
  4 53  1  0  0  0  0
  5  6  1  0  0  0  0
  5  7  1  0  0  0  0
  5 11  1  1  0  0  0
  5 12  1  0  0  0  0
  6  8  1  0  0  0  0
  6 35  1  0  0  0  0
  6 36  1  0  0  0  0
  7  9  1  0  0  0  0
  7 37  1  0  0  0  0
  7 38  1  0  0  0  0
  8 10  1  0  0  0  0
  8 39  1  0  0  0  0
  8 40  1  0  0  0  0
  9 10  1  0  0  0  0
  9 41  1  0  0  0  0
  9 42  1  0  0  0  0
 10 43  1  6  0  0  0
 11 13  1  0  0  0  0
 11 44  1  0  0  0  0
 11 45  1  0  0  0  0
 12 46  1  0  0  0  0
 12 47  1  0  0  0  0
 12 48  1  0  0  0  0
 13 14  1  0  0  0  0
 13 49  1  0  0  0  0
 13 50  1  0  0  0  0
 14 51  1  0  0  0  0
 14 52  1  0  0  0  0
 15 16  1  0  0  0  0
 16 17  1  0  0  0  0
 16 18  1  0  0  0  0
 17 20  2  0  0  0  0
 17 22  1  0  0  0  0
 18 21  2  0  0  0  0
 18 23  1  0  0  0  0
 19 24  2  0  0  0  0
 19 25  1  0  0  0  0
 20 26  1  0  0  0  0
 20 54  1  0  0  0  0
 21 27  1  0  0  0  0
 21 55  1  0  0  0  0
 22 28  2  0  0  0  0
 22 56  1  0  0  0  0
 23 29  2  0  0  0  0
 23 57  1  0  0  0  0
 24 32  1  0  0  0  0
 24 58  1  0  0  0  0
 25 33  2  0  0  0  0
 25 59  1  0  0  0  0
 26 30  2  0  0  0  0
 26 60  1  0  0  0  0
 27 31  2  0  0  0  0
 27 61  1  0  0  0  0
 28 30  1  0  0  0  0
 28 62  1  0  0  0  0
 29 31  1  0  0  0  0
 29 63  1  0  0  0  0
 30 64  1  0  0  0  0
 31 65  1  0  0  0  0
 32 34  2  0  0  0  0
 32 66  1  0  0  0  0
 33 34  1  0  0  0  0
 33 67  1  0  0  0  0
 34 68  1  0  0  0  0
M  CHG  1   5   1
M  END
