@<TRIPOS>MOLECULE
lig
 58 60 0 0 0
SMALL
GASTEIGER

@<TRIPOS>ATOM
      1 O           3.1164    1.4081   -1.6828 O.3     1  UNL11      -0.4532
      2 O           0.7003    0.1703   -2.2256 O.3     1  UNL11      -0.3513
      3 O           2.0994    3.1371   -2.7571 O.2     1  UNL11      -0.2466
      4 O          -1.0535    1.0738   -0.0138 O.2     1  UNL11      -0.4639
      5 O           2.3755   -3.1311   -7.0907 O.3     1  UNL11      -0.3950
      6 N           5.7117    3.9116   -1.0134 N.4     1  UNL11       0.2417
      7 C           4.3358    3.4715   -0.8573 C.3     1  UNL11       0.0076
      8 C           6.4669    2.6631   -1.1194 C.3     1  UNL11      -0.0269
      9 C           4.2165    2.3297   -1.8822 C.3     1  UNL11       0.1474
     10 C           5.4828    1.5744   -1.5537 C.3     1  UNL11       0.0298
     11 C           6.1312    4.6346    0.1860 C.3     1  UNL11      -0.0414
     12 C           5.8436    4.6687   -2.2571 C.3     1  UNL11      -0.0414
     13 C           1.9600    2.0658   -2.1282 C.2     1  UNL11       0.3523
     14 C           0.5376    1.5513   -1.8909 C.3     1  UNL11       0.2482
     15 C          -0.4649    2.1978   -2.8559 C.3     1  UNL11       0.0025
     16 C           0.0955    1.6433   -0.4479 C.3     1  UNL11       0.1522
     17 C           1.1315    0.0576   -3.5738 C.3     1  UNL11       0.0501
     18 C          -0.1741    3.3516   -3.7069 C.3     1  UNL11      -0.0549
     19 C          -1.7900    1.6382   -2.9278 C.3     1  UNL11      -0.0549
     20 C           0.6532    2.2803    0.6651 C.3     1  UNL11      -0.0169
     21 C           1.3055   -1.4197   -3.9318 C.3     1  UNL11      -0.0273
     22 C           1.7702   -1.5411   -5.3845 C.3     1  UNL11      -0.0276
     23 C          -0.1914    2.1051    1.7495 C.3     1  UNL11      -0.0235
     24 C          -1.1615    3.9214   -4.5734 C.3     1  UNL11      -0.0614
     25 C          -2.7962    2.2006   -3.7872 C.3     1  UNL11      -0.0614
     26 C          -1.2566    1.3447    1.3008 C.3     1  UNL11       0.0922
     27 C          -2.4526    3.3291   -4.5861 C.3     1  UNL11      -0.0617
     28 C           1.9442   -3.0184   -5.7424 C.3     1  UNL11       0.0443
     29 H           3.6614    4.2814   -1.1355 H       1  UNL11       0.0852
     30 H           4.1877    3.0789    0.1487 H       1  UNL11       0.0852
     31 H           6.8849    2.4076   -0.1457 H       1  UNL11       0.0816
     32 H           7.2655    2.8061   -1.8473 H       1  UNL11       0.0816
     33 H           4.2964    2.6893   -2.9295 H       1  UNL11       0.0790
     34 H           5.2966    0.8988   -0.7188 H       1  UNL11       0.0355
     35 H           5.8504    0.9779   -2.3886 H       1  UNL11       0.0355
     36 H           7.1633    4.9648    0.0689 H       1  UNL11       0.0778
     37 H           5.4867    5.5015    0.3317 H       1  UNL11       0.0778
     38 H           6.0562    3.9766    1.0517 H       1  UNL11       0.0778
     39 H           6.8759    4.9986   -2.3738 H       1  UNL11       0.0778
     40 H           5.1860    5.5374   -2.2252 H       1  UNL11       0.0778
     41 H           5.5674    4.0346   -3.0996 H       1  UNL11       0.0778
     42 H           0.3872    0.5058   -4.2320 H       1  UNL11       0.0560
     43 H           2.0829    0.5755   -3.6954 H       1  UNL11       0.0560
     44 H           0.7593    3.7623   -3.6823 H       1  UNL11       0.0621
     45 H          -2.0197    0.8250   -2.3566 H       1  UNL11       0.0621
     46 H           1.5365    2.7901    0.6767 H       1  UNL11       0.0653
     47 H           0.3541   -1.9375   -3.8102 H       1  UNL11       0.0288
     48 H           2.0499   -1.8678   -3.2736 H       1  UNL11       0.0288
     49 H           1.0259   -1.0930   -6.0427 H       1  UNL11       0.0288
     50 H           2.7216   -1.0233   -5.5061 H       1  UNL11       0.0288
     51 H          -0.0546    2.4661    2.6937 H       1  UNL11       0.0649
     52 H          -0.9450    4.7259   -5.1619 H       1  UNL11       0.0618
     53 H          -3.7340    1.8010   -3.8240 H       1  UNL11       0.0618
     54 H          -2.0542    1.0410    1.8594 H       1  UNL11       0.1029
     55 H          -3.1661    3.7299   -5.1949 H       1  UNL11       0.0618
     56 H           0.9928   -3.5363   -5.6208 H       1  UNL11       0.0557
     57 H           2.6885   -3.4666   -5.0842 H       1  UNL11       0.0557
     58 H           2.4869   -4.0774   -7.3200 H       1  UNL11       0.2094
@<TRIPOS>UNITY_ATOM_ATTR
6 1
charge 1
@<TRIPOS>BOND
     1     9     1    1
     2     1    13    1
     3    14     2    1
     4     2    17    1
     5     3    13    2
     6     4    16   ar
     7     4    26   ar
     8     5    28    1
     9     5    58    1
    10     6     7    1
    11     6     8    1
    12     6    11    1
    13     6    12    1
    14     7     9    1
    15     7    29    1
    16     7    30    1
    17     8    10    1
    18     8    31    1
    19     8    32    1
    20     9    10    1
    21     9    33    1
    22    10    34    1
    23    10    35    1
    24    11    36    1
    25    11    37    1
    26    11    38    1
    27    12    39    1
    28    12    40    1
    29    12    41    1
    30    14    13    1
    31    14    15    1
    32    14    16    1
    33    15    18   ar
    34    15    19   ar
    35    16    20   ar
    36    17    21    1
    37    17    42    1
    38    17    43    1
    39    18    24   ar
    40    18    44    1
    41    19    25   ar
    42    19    45    1
    43    20    23   ar
    44    20    46    1
    45    21    22    1
    46    21    47    1
    47    21    48    1
    48    22    28    1
    49    22    49    1
    50    22    50    1
    51    23    26   ar
    52    23    51    1
    53    24    27   ar
    54    24    52    1
    55    25    27   ar
    56    25    53    1
    57    26    54    1
    58    27    55    1
    59    28    56    1
    60    28    57    1
