23336651
  MJ221101                      

 58 60  0  0  1  0  0  0  0  0999 V2000
    0.7597    0.1722    0.0000 O   0  0  0  0  0  0  0  0  0  0  0  0
   -1.3289   -0.4621    0.0000 O   0  0  0  0  0  0  0  0  0  0  0  0
   -0.0801    1.3282    0.0000 O   0  0  0  0  0  0  0  0  0  0  0  0
   -0.8914    1.4748    0.0000 O   0  0  0  0  0  0  0  0  0  0  0  0
   -4.9248   -0.4253    0.0000 O   0  0  0  0  0  0  0  0  0  0  0  0
    2.6967    1.0696    0.0000 N   0  3  0  0  0  0  0  0  0  0  0  0
    2.2117    0.4021    0.0000 C   0  0  0  0  0  0  0  0  0  0  0  0
    2.2117    1.7370    0.0000 C   0  0  0  0  0  0  0  0  0  0  0  0
    1.4270    0.6571    0.0000 C   0  0  0  0  0  0  0  0  0  0  0  0
    1.4270    1.4821    0.0000 C   0  0  0  0  0  0  0  0  0  0  0  0
    3.4154    0.6646    0.0000 C   0  0  0  0  0  0  0  0  0  0  0  0
    3.4154    1.4746    0.0000 C   0  0  0  0  0  0  0  0  0  0  0  0
    0.0060    0.5077    0.0000 C   0  0  0  0  0  0  0  0  0  0  0  0
   -0.6614    0.0228    0.0000 C   0  0  0  0  0  0  0  0  0  0  0  0
   -0.1765   -0.6447    0.0000 C   0  0  0  0  0  0  0  0  0  0  0  0
   -1.1464    0.6902    0.0000 C   0  0  0  0  0  0  0  0  0  0  0  0
   -2.0825   -0.1266    0.0000 C   0  0  0  0  0  0  0  0  0  0  0  0
    0.6440   -0.5584    0.0000 C   0  0  0  0  0  0  0  0  0  0  0  0
   -0.5121   -1.3983    0.0000 C   0  0  0  0  0  0  0  0  0  0  0  0
   -1.9714    0.6902    0.0000 C   0  0  0  0  0  0  0  0  0  0  0  0
   -2.7500   -0.6115    0.0000 C   0  0  0  0  0  0  0  0  0  0  0  0
   -3.5037   -0.2759    0.0000 C   0  0  0  0  0  0  0  0  0  0  0  0
   -2.2263    1.4748    0.0000 C   0  0  0  0  0  0  0  0  0  0  0  0
    1.1289   -1.2259    0.0000 C   0  0  0  0  0  0  0  0  0  0  0  0
   -0.0272   -2.0658    0.0000 C   0  0  0  0  0  0  0  0  0  0  0  0
   -1.5589    1.9598    0.0000 C   0  0  0  0  0  0  0  0  0  0  0  0
    0.7933   -1.9795    0.0000 C   0  0  0  0  0  0  0  0  0  0  0  0
   -4.1711   -0.7608    0.0000 C   0  0  0  0  0  0  0  0  0  0  0  0
    2.0684   -0.4103    0.0000 H   0  0  0  0  0  0  0  0  0  0  0  0
    2.8052   -0.1710    0.0000 H   0  0  0  0  0  0  0  0  0  0  0  0
    2.8052    2.3101    0.0000 H   0  0  0  0  0  0  0  0  0  0  0  0
    2.0684    2.5495    0.0000 H   0  0  0  0  0  0  0  0  0  0  0  0
    0.6919    1.0316    0.0000 H   0  0  0  0  0  0  0  0  0  0  0  0
    1.3803    2.3057    0.0000 H   0  0  0  0  0  0  0  0  0  0  0  0
    0.8312    2.0526    0.0000 H   0  0  0  0  0  0  0  0  0  0  0  0
    2.8365    0.0767    0.0000 H   0  0  0  0  0  0  0  0  0  0  0  0
    3.8316   -0.0477    0.0000 H   0  0  0  0  0  0  0  0  0  0  0  0
    4.2117    0.8802    0.0000 H   0  0  0  0  0  0  0  0  0  0  0  0
    4.2117    1.2589    0.0000 H   0  0  0  0  0  0  0  0  0  0  0  0
    3.8316    2.1869    0.0000 H   0  0  0  0  0  0  0  0  0  0  0  0
    2.8365    2.0625    0.0000 H   0  0  0  0  0  0  0  0  0  0  0  0
   -2.7906    0.2967    0.0000 H   0  0  0  0  0  0  0  0  0  0  0  0
   -1.3619    0.2750    0.0000 H   0  0  0  0  0  0  0  0  0  0  0  0
    1.4462   -0.3658    0.0000 H   0  0  0  0  0  0  0  0  0  0  0  0
   -1.3326   -1.4846    0.0000 H   0  0  0  0  0  0  0  0  0  0  0  0
   -2.7298    1.0149    0.0000 H   0  0  0  0  0  0  0  0  0  0  0  0
   -3.0412   -1.3834    0.0000 H   0  0  0  0  0  0  0  0  0  0  0  0
   -2.3047   -1.3060    0.0000 H   0  0  0  0  0  0  0  0  0  0  0  0
   -3.6163    0.5413    0.0000 H   0  0  0  0  0  0  0  0  0  0  0  0
   -4.2627    0.0474    0.0000 H   0  0  0  0  0  0  0  0  0  0  0  0
   -2.7477    2.1141    0.0000 H   0  0  0  0  0  0  0  0  0  0  0  0
    1.8931   -1.5366    0.0000 H   0  0  0  0  0  0  0  0  0  0  0  0
   -0.3627   -2.8194    0.0000 H   0  0  0  0  0  0  0  0  0  0  0  0
   -1.5589    2.7848    0.0000 H   0  0  0  0  0  0  0  0  0  0  0  0
    1.2783   -2.6469    0.0000 H   0  0  0  0  0  0  0  0  0  0  0  0
   -4.4623   -1.5327    0.0000 H   0  0  0  0  0  0  0  0  0  0  0  0
   -3.7258   -1.4554    0.0000 H   0  0  0  0  0  0  0  0  0  0  0  0
   -5.0110    0.3952    0.0000 H   0  0  0  0  0  0  0  0  0  0  0  0
  9  1  1  6  0  0  0
  1 13  1  0  0  0  0
 14  2  1  1  0  0  0
  2 17  1  0  0  0  0
  3 13  2  0  0  0  0
  4 16  1  0  0  0  0
  4 26  1  0  0  0  0
  5 28  1  0  0  0  0
  5 58  1  0  0  0  0
  6  7  1  0  0  0  0
  6  8  1  0  0  0  0
  6 11  1  0  0  0  0
  6 12  1  0  0  0  0
  7  9  1  0  0  0  0
  7 29  1  0  0  0  0
  7 30  1  0  0  0  0
  8 10  1  0  0  0  0
  8 31  1  0  0  0  0
  8 32  1  0  0  0  0
  9 10  1  0  0  0  0
  9 33  1  1  0  0  0
 10 34  1  0  0  0  0
 10 35  1  0  0  0  0
 11 36  1  0  0  0  0
 11 37  1  0  0  0  0
 11 38  1  0  0  0  0
 12 39  1  0  0  0  0
 12 40  1  0  0  0  0
 12 41  1  0  0  0  0
 14 13  1  1  0  0  0
 14 15  1  0  0  0  0
 14 16  1  0  0  0  0
 15 18  2  3  0  0  0
 15 19  1  0  0  0  0
 16 20  2  3  0  0  0
 17 21  1  0  0  0  0
 17 42  1  0  0  0  0
 17 43  1  0  0  0  0
 18 24  1  0  0  0  0
 18 44  1  0  0  0  0
 19 25  2  0  0  0  0
 19 45  1  0  0  0  0
 20 23  1  0  0  0  0
 20 46  1  0  0  0  0
 21 22  1  0  0  0  0
 21 47  1  0  0  0  0
 21 48  1  0  0  0  0
 22 28  1  0  0  0  0
 22 49  1  0  0  0  0
 22 50  1  0  0  0  0
 23 26  2  0  0  0  0
 23 51  1  0  0  0  0
 24 27  2  0  0  0  0
 24 52  1  0  0  0  0
 25 27  1  0  0  0  0
 25 53  1  0  0  0  0
 26 54  1  0  0  0  0
 27 55  1  0  0  0  0
 28 56  1  0  0  0  0
 28 57  1  0  0  0  0
M  END
