23336651
  Mrv15b2304172510573D          

 58 60  0  0  1  0            999 V2000
    3.1164    1.4081   -1.6828 O   0  0  0  0  0  0  0  0  0  0  0  0
    0.7003    0.1703   -2.2256 O   0  0  0  0  0  0  0  0  0  0  0  0
    2.0994    3.1371   -2.7571 O   0  0  0  0  0  0  0  0  0  0  0  0
   -1.0535    1.0738   -0.0138 O   0  0  0  0  0  0  0  0  0  0  0  0
    2.3755   -3.1311   -7.0907 O   0  0  0  0  0  0  0  0  0  0  0  0
    5.7117    3.9116   -1.0134 N   0  3  2  0  0  0  0  0  0  0  0  0
    4.3358    3.4715   -0.8573 C   0  0  2  0  0  0  0  0  0  0  0  0
    6.4669    2.6631   -1.1194 C   0  0  2  0  0  0  0  0  0  0  0  0
    4.2165    2.3297   -1.8822 C   0  0  1  0  0  0  0  0  0  0  0  0
    5.4828    1.5744   -1.5537 C   0  0  2  0  0  0  0  0  0  0  0  0
    6.1312    4.6346    0.1860 C   0  0  0  0  0  0  0  0  0  0  0  0
    5.8436    4.6687   -2.2571 C   0  0  0  0  0  0  0  0  0  0  0  0
    1.9600    2.0658   -2.1282 C   0  0  0  0  0  0  0  0  0  0  0  0
    0.5376    1.5513   -1.8909 C   0  0  1  0  0  0  0  0  0  0  0  0
   -0.4649    2.1978   -2.8559 C   0  0  0  0  0  0  0  0  0  0  0  0
    0.0955    1.6433   -0.4479 C   0  0  0  0  0  0  0  0  0  0  0  0
    1.1315    0.0576   -3.5738 C   0  0  1  0  0  0  0  0  0  0  0  0
   -0.1741    3.3516   -3.7069 C   0  0  0  0  0  0  0  0  0  0  0  0
   -1.7900    1.6382   -2.9278 C   0  0  0  0  0  0  0  0  0  0  0  0
    0.6532    2.2803    0.6651 C   0  0  0  0  0  0  0  0  0  0  0  0
    1.3055   -1.4197   -3.9318 C   0  0  2  0  0  0  0  0  0  0  0  0
    1.7702   -1.5411   -5.3845 C   0  0  1  0  0  0  0  0  0  0  0  0
   -0.1914    2.1051    1.7495 C   0  0  0  0  0  0  0  0  0  0  0  0
   -1.1615    3.9214   -4.5734 C   0  0  0  0  0  0  0  0  0  0  0  0
   -2.7962    2.2006   -3.7872 C   0  0  0  0  0  0  0  0  0  0  0  0
   -1.2566    1.3447    1.3008 C   0  0  0  0  0  0  0  0  0  0  0  0
   -2.4526    3.3291   -4.5861 C   0  0  0  0  0  0  0  0  0  0  0  0
    1.9442   -3.0184   -5.7424 C   0  0  1  0  0  0  0  0  0  0  0  0
    3.6614    4.2814   -1.1355 H   0  0  0  0  0  0  0  0  0  0  0  0
    4.1877    3.0789    0.1487 H   0  0  0  0  0  0  0  0  0  0  0  0
    6.8849    2.4076   -0.1457 H   0  0  0  0  0  0  0  0  0  0  0  0
    7.2655    2.8061   -1.8473 H   0  0  0  0  0  0  0  0  0  0  0  0
    4.2964    2.6893   -2.9295 H   0  0  0  0  0  0  0  0  0  0  0  0
    5.2966    0.8988   -0.7188 H   0  0  0  0  0  0  0  0  0  0  0  0
    5.8504    0.9779   -2.3886 H   0  0  0  0  0  0  0  0  0  0  0  0
    7.1633    4.9648    0.0689 H   0  0  0  0  0  0  0  0  0  0  0  0
    5.4867    5.5015    0.3317 H   0  0  0  0  0  0  0  0  0  0  0  0
    6.0562    3.9766    1.0517 H   0  0  0  0  0  0  0  0  0  0  0  0
    6.8759    4.9986   -2.3738 H   0  0  0  0  0  0  0  0  0  0  0  0
    5.1860    5.5374   -2.2252 H   0  0  0  0  0  0  0  0  0  0  0  0
    5.5674    4.0346   -3.0996 H   0  0  0  0  0  0  0  0  0  0  0  0
    0.3872    0.5058   -4.2320 H   0  0  0  0  0  0  0  0  0  0  0  0
    2.0829    0.5755   -3.6954 H   0  0  0  0  0  0  0  0  0  0  0  0
    0.7593    3.7623   -3.6823 H   0  0  0  0  0  0  0  0  0  0  0  0
   -2.0197    0.8250   -2.3566 H   0  0  0  0  0  0  0  0  0  0  0  0
    1.5365    2.7901    0.6767 H   0  0  0  0  0  0  0  0  0  0  0  0
    0.3541   -1.9375   -3.8102 H   0  0  0  0  0  0  0  0  0  0  0  0
    2.0499   -1.8678   -3.2736 H   0  0  0  0  0  0  0  0  0  0  0  0
    1.0259   -1.0930   -6.0427 H   0  0  0  0  0  0  0  0  0  0  0  0
    2.7216   -1.0233   -5.5061 H   0  0  0  0  0  0  0  0  0  0  0  0
   -0.0546    2.4661    2.6937 H   0  0  0  0  0  0  0  0  0  0  0  0
   -0.9450    4.7259   -5.1619 H   0  0  0  0  0  0  0  0  0  0  0  0
   -3.7340    1.8010   -3.8240 H   0  0  0  0  0  0  0  0  0  0  0  0
   -2.0542    1.0410    1.8594 H   0  0  0  0  0  0  0  0  0  0  0  0
   -3.1661    3.7299   -5.1949 H   0  0  0  0  0  0  0  0  0  0  0  0
    0.9928   -3.5363   -5.6208 H   0  0  0  0  0  0  0  0  0  0  0  0
    2.6885   -3.4666   -5.0842 H   0  0  0  0  0  0  0  0  0  0  0  0
    2.4869   -4.0774   -7.3200 H   0  0  0  0  0  0  0  0  0  0  0  0
  9  1  1  0  0  0  0
  1 13  1  0  0  0  0
 14  2  1  0  0  0  0
  2 17  1  0  0  0  0
  3 13  2  0  0  0  0
  4 16  1  0  0  0  0
  4 26  1  0  0  0  0
  5 28  1  0  0  0  0
  5 58  1  0  0  0  0
  6  7  1  0  0  0  0
  6  8  1  0  0  0  0
  6 11  1  0  0  0  0
  6 12  1  0  0  0  0
  7  9  1  0  0  0  0
  7 29  1  0  0  0  0
  7 30  1  0  0  0  0
  8 10  1  0  0  0  0
  8 31  1  0  0  0  0
  8 32  1  0  0  0  0
  9 10  1  0  0  0  0
  9 33  1  0  0  0  0
 10 34  1  0  0  0  0
 10 35  1  0  0  0  0
 11 36  1  0  0  0  0
 11 37  1  0  0  0  0
 11 38  1  0  0  0  0
 12 39  1  0  0  0  0
 12 40  1  0  0  0  0
 12 41  1  0  0  0  0
 14 13  1  0  0  0  0
 14 15  1  0  0  0  0
 14 16  1  0  0  0  0
 15 18  2  0  0  0  0
 15 19  1  0  0  0  0
 16 20  2  0  0  0  0
 17 21  1  0  0  0  0
 17 42  1  0  0  0  0
 17 43  1  0  0  0  0
 18 24  1  0  0  0  0
 18 44  1  0  0  0  0
 19 25  2  0  0  0  0
 19 45  1  0  0  0  0
 20 23  1  0  0  0  0
 20 46  1  0  0  0  0
 21 22  1  0  0  0  0
 21 47  1  0  0  0  0
 21 48  1  0  0  0  0
 22 28  1  0  0  0  0
 22 49  1  0  0  0  0
 22 50  1  0  0  0  0
 23 26  2  0  0  0  0
 23 51  1  0  0  0  0
 24 27  2  0  0  0  0
 24 52  1  0  0  0  0
 25 27  1  0  0  0  0
 25 53  1  0  0  0  0
 26 54  1  0  0  0  0
 27 55  1  0  0  0  0
 28 56  1  0  0  0  0
 28 57  1  0  0  0  0
M  CHG  1   6   1
M  END
