lig
 OpenBabel04172510573D

 58 60  0  0  1  0  0  0  0  0999 V2000
   -0.9813    0.9572    0.2579 O   0  0  0  0  0  0  0  0  0  0  0  0
    1.2600   -0.0600   -0.8188 O   0  0  0  0  0  0  0  0  0  0  0  0
   -0.0825    0.1570    2.2178 O   0  0  0  0  0  0  0  0  0  0  0  0
    2.3931   -2.4204    0.0877 O   0  0  0  0  0  0  0  0  0  0  0  0
    5.5469    4.2880   -0.8308 O   0  0  0  0  0  0  0  0  0  0  0  0
   -3.9440    2.1045    0.0507 N   0  3  0  0  0  0  0  0  0  0  0  0
   -2.5537    2.7897    0.0590 C   0  0  0  0  0  0  0  0  0  0  0  0
   -3.8585    0.9523    1.0660 C   0  0  0  0  0  0  0  0  0  0  0  0
   -1.6944    1.9477    0.9889 C   0  0  1  0  0  0  0  0  0  0  0  0
   -2.6792    1.3120    1.9493 C   0  0  0  0  0  0  0  0  0  0  0  0
   -5.0210    3.0973    0.4719 C   0  0  0  0  0  0  0  0  0  0  0  0
   -4.2777    1.5709   -1.3330 C   0  0  0  0  0  0  0  0  0  0  0  0
   -0.1985    0.1097    0.9978 C   0  0  0  0  0  0  0  0  0  0  0  0
    0.5400   -0.8908    0.1074 C   0  0  1  0  0  0  0  0  0  0  0  0
   -0.4409   -1.7709   -0.6723 C   0  0  0  0  0  0  0  0  0  0  0  0
    1.6209   -1.6707    0.8702 C   0  0  0  0  0  0  0  0  0  0  0  0
    2.1811    0.7730   -0.1400 C   0  0  0  0  0  0  0  0  0  0  0  0
   -1.1952   -2.6887    0.0210 C   0  0  0  0  0  0  0  0  0  0  0  0
   -0.5297   -1.6089   -2.0354 C   0  0  0  0  0  0  0  0  0  0  0  0
    1.9101   -1.7212    2.1683 C   0  0  0  0  0  0  0  0  0  0  0  0
    2.9154    1.6297   -1.1615 C   0  0  0  0  0  0  0  0  0  0  0  0
    3.9168    2.5663   -0.4947 C   0  0  0  0  0  0  0  0  0  0  0  0
    3.0060   -2.6139    2.2415 C   0  0  0  0  0  0  0  0  0  0  0  0
   -2.0890   -3.4903   -0.6892 C   0  0  0  0  0  0  0  0  0  0  0  0
   -1.4236   -2.4105   -2.7454 C   0  0  0  0  0  0  0  0  0  0  0  0
    3.2616   -3.0113    0.9497 C   0  0  0  0  0  0  0  0  0  0  0  0
   -2.2032   -3.3512   -2.0722 C   0  0  0  0  0  0  0  0  0  0  0  0
    4.6204    3.4533   -1.5120 C   0  0  0  0  0  0  0  0  0  0  0  0
   -2.1745    2.8355   -0.9667 H   0  0  0  0  0  0  0  0  0  0  0  0
   -2.6884    3.8013    0.4561 H   0  0  0  0  0  0  0  0  0  0  0  0
   -4.8054    0.8654    1.6074 H   0  0  0  0  0  0  0  0  0  0  0  0
   -3.6633    0.0269    0.5121 H   0  0  0  0  0  0  0  0  0  0  0  0
   -0.9647    2.5822    1.5054 H   0  0  0  0  0  0  0  0  0  0  0  0
   -2.3454    0.4258    2.4903 H   0  0  0  0  0  0  0  0  0  0  0  0
   -2.9966    2.0521    2.6944 H   0  0  0  0  0  0  0  0  0  0  0  0
   -4.7927    3.4517    1.4813 H   0  0  0  0  0  0  0  0  0  0  0  0
   -5.0173    3.9293   -0.2385 H   0  0  0  0  0  0  0  0  0  0  0  0
   -5.9876    2.5851    0.4565 H   0  0  0  0  0  0  0  0  0  0  0  0
   -3.4824    0.8857   -1.6417 H   0  0  0  0  0  0  0  0  0  0  0  0
   -5.2359    1.0462   -1.2772 H   0  0  0  0  0  0  0  0  0  0  0  0
   -4.3402    2.4174   -2.0231 H   0  0  0  0  0  0  0  0  0  0  0  0
    2.9532    0.2108    0.3929 H   0  0  0  0  0  0  0  0  0  0  0  0
    1.6899    1.4527    0.5642 H   0  0  0  0  0  0  0  0  0  0  0  0
   -1.1178   -2.8015    1.0979 H   0  0  0  0  0  0  0  0  0  0  0  0
    0.0549   -0.8878   -2.5959 H   0  0  0  0  0  0  0  0  0  0  0  0
    1.4619   -1.2403    3.0219 H   0  0  0  0  0  0  0  0  0  0  0  0
    2.1839    2.2077   -1.7404 H   0  0  0  0  0  0  0  0  0  0  0  0
    3.4252    0.9804   -1.8842 H   0  0  0  0  0  0  0  0  0  0  0  0
    4.6644    1.9891    0.0637 H   0  0  0  0  0  0  0  0  0  0  0  0
    3.4099    3.1964    0.2468 H   0  0  0  0  0  0  0  0  0  0  0  0
    3.5413   -2.9301    3.1252 H   0  0  0  0  0  0  0  0  0  0  0  0
   -2.6971   -4.2217   -0.1649 H   0  0  0  0  0  0  0  0  0  0  0  0
   -1.5140   -2.3018   -3.8223 H   0  0  0  0  0  0  0  0  0  0  0  0
    3.9867   -3.6746    0.5011 H   0  0  0  0  0  0  0  0  0  0  0  0
   -2.8998   -3.9746   -2.6250 H   0  0  0  0  0  0  0  0  0  0  0  0
    3.9107    4.0868   -2.0535 H   0  0  0  0  0  0  0  0  0  0  0  0
    5.1749    2.8529   -2.2396 H   0  0  0  0  0  0  0  0  0  0  0  0
    5.0429    4.8392   -0.2080 H   0  0  0  0  0  0  0  0  0  0  0  0
  1  9  1  0  0  0  0
  1 13  1  0  0  0  0
  2 17  1  0  0  0  0
  3 13  2  0  0  0  0
  4 16  1  0  0  0  0
  4 26  1  0  0  0  0
  5 28  1  0  0  0  0
  5 58  1  0  0  0  0
  6  7  1  0  0  0  0
  6  8  1  0  0  0  0
  6 11  1  0  0  0  0
  6 12  1  0  0  0  0
  7  9  1  0  0  0  0
  7 29  1  0  0  0  0
  7 30  1  0  0  0  0
  8 10  1  0  0  0  0
  8 31  1  0  0  0  0
  8 32  1  0  0  0  0
  9 10  1  0  0  0  0
  9 33  1  1  0  0  0
 10 34  1  0  0  0  0
 10 35  1  0  0  0  0
 11 36  1  0  0  0  0
 11 37  1  0  0  0  0
 11 38  1  0  0  0  0
 12 39  1  0  0  0  0
 12 40  1  0  0  0  0
 12 41  1  0  0  0  0
 13 14  1  0  0  0  0
 14  2  1  6  0  0  0
 14 15  1  0  0  0  0
 14 16  1  0  0  0  0
 15 18  2  0  0  0  0
 15 19  1  0  0  0  0
 16 20  2  0  0  0  0
 17 21  1  0  0  0  0
 17 42  1  0  0  0  0
 17 43  1  0  0  0  0
 18 24  1  0  0  0  0
 18 44  1  0  0  0  0
 19 25  2  0  0  0  0
 19 45  1  0  0  0  0
 20 23  1  0  0  0  0
 20 46  1  0  0  0  0
 21 22  1  0  0  0  0
 21 47  1  0  0  0  0
 21 48  1  0  0  0  0
 22 28  1  0  0  0  0
 22 49  1  0  0  0  0
 22 50  1  0  0  0  0
 23 26  2  0  0  0  0
 23 51  1  0  0  0  0
 24 27  2  0  0  0  0
 24 52  1  0  0  0  0
 25 27  1  0  0  0  0
 25 53  1  0  0  0  0
 26 54  1  0  0  0  0
 27 55  1  0  0  0  0
 28 56  1  0  0  0  0
 28 57  1  0  0  0  0
M  CHG  1   6   1
M  END
