73213686
  -OEChem-04152518073D

 52 55  0     1  0  0  0  0  0999 V2000
   -0.3786    1.1611    2.2416 S   0  0  0  0  0  0  0  0  0  0  0  0
    3.7376   -0.5987    0.5262 S   0  0  0  0  0  0  0  0  0  0  0  0
   -2.6579   -3.2043    0.2518 S   0  0  0  0  0  0  0  0  0  0  0  0
   -3.2294    2.7992   -0.0816 O   0  0  0  0  0  0  0  0  0  0  0  0
   -1.8318    0.8318   -2.1824 O   0  0  0  0  0  0  0  0  0  0  0  0
    1.0961    1.8004   -2.7916 O   0  0  0  0  0  0  0  0  0  0  0  0
   -4.3652   -0.0403   -1.0064 O   0  0  0  0  0  0  0  0  0  0  0  0
    1.8908   -0.2562   -2.1842 O   0  0  0  0  0  0  0  0  0  0  0  0
   -0.4043    1.4286   -0.4046 N   0  0  0  0  0  0  0  0  0  0  0  0
   -3.0572    0.5403    0.8203 N   0  0  0  0  0  0  0  0  0  0  0  0
    6.3192   -1.6451    0.4166 N   0  0  0  0  0  0  0  0  0  0  0  0
    6.2736    0.5018    0.1141 N   0  0  0  0  0  0  0  0  0  0  0  0
    7.5985   -1.2869    0.2388 N   0  0  0  0  0  0  0  0  0  0  0  0
    7.5644    0.0271    0.0539 N   0  0  0  0  0  0  0  0  0  0  0  0
   -2.3728    1.6727    0.1946 C   0  0  2  0  0  0  0  0  0  0  0  0
   -0.9754    2.0464    0.7789 C   0  0  1  0  0  0  0  0  0  0  0  0
   -1.5611    1.2389   -1.0763 C   0  0  0  0  0  0  0  0  0  0  0  0
    0.9246    1.2038   -0.5763 C   0  0  0  0  0  0  0  0  0  0  0  0
    1.7986    1.2875    0.4547 C   0  0  0  0  0  0  0  0  0  0  0  0
    1.3720    1.5370    1.8981 C   0  0  0  0  0  0  0  0  0  0  0  0
    3.2953    1.1347    0.3251 C   0  0  0  0  0  0  0  0  0  0  0  0
   -3.6552    3.5347    1.0553 C   0  0  0  0  0  0  0  0  0  0  0  0
   -4.0100   -0.2307    0.1540 C   0  0  0  0  0  0  0  0  0  0  0  0
    1.3661    0.8072   -1.9220 C   0  0  0  0  0  0  0  0  0  0  0  0
   -4.5641   -1.3351    1.0327 C   0  0  0  0  0  0  0  0  0  0  0  0
   -4.5404    4.6757    0.6012 C   0  0  0  0  0  0  0  0  0  0  0  0
   -4.2796   -2.7164    0.5048 C   0  0  0  0  0  0  0  0  0  0  0  0
    5.5197   -0.5495    0.3392 C   0  0  0  0  0  0  0  0  0  0  0  0
   -5.1757   -3.7086    0.1730 C   0  0  0  0  0  0  0  0  0  0  0  0
   -4.5221   -4.8850   -0.2950 C   0  0  0  0  0  0  0  0  0  0  0  0
   -3.1516   -4.7471   -0.3031 C   0  0  0  0  0  0  0  0  0  0  0  0
    5.9758   -3.0253    0.6488 C   0  0  0  0  0  0  0  0  0  0  0  0
   -0.7748    3.1248    0.8074 H   0  0  0  0  0  0  0  0  0  0  0  0
   -2.8346    0.3030    1.7839 H   0  0  0  0  0  0  0  0  0  0  0  0
    1.9547    0.9108    2.5815 H   0  0  0  0  0  0  0  0  0  0  0  0
    1.5685    2.5829    2.1585 H   0  0  0  0  0  0  0  0  0  0  0  0
    3.6381    1.4865   -0.6542 H   0  0  0  0  0  0  0  0  0  0  0  0
    3.8105    1.7488    1.0726 H   0  0  0  0  0  0  0  0  0  0  0  0
   -4.2159    2.8795    1.7303 H   0  0  0  0  0  0  0  0  0  0  0  0
   -2.7913    3.9370    1.5932 H   0  0  0  0  0  0  0  0  0  0  0  0
   -5.6479   -1.1762    1.0955 H   0  0  0  0  0  0  0  0  0  0  0  0
   -4.1843   -1.2594    2.0584 H   0  0  0  0  0  0  0  0  0  0  0  0
   -3.9976    5.3358   -0.0833 H   0  0  0  0  0  0  0  0  0  0  0  0
   -5.4095    4.2952    0.0543 H   0  0  0  0  0  0  0  0  0  0  0  0
   -4.8902    5.2631    1.4548 H   0  0  0  0  0  0  0  0  0  0  0  0
    1.3752    1.5774   -3.7052 H   0  0  0  0  0  0  0  0  0  0  0  0
   -6.2493   -3.6004    0.2598 H   0  0  0  0  0  0  0  0  0  0  0  0
   -5.0313   -5.7866   -0.6099 H   0  0  0  0  0  0  0  0  0  0  0  0
   -2.4167   -5.4784   -0.6085 H   0  0  0  0  0  0  0  0  0  0  0  0
    5.3048   -3.3552   -0.1479 H   0  0  0  0  0  0  0  0  0  0  0  0
    6.8838   -3.6341    0.6412 H   0  0  0  0  0  0  0  0  0  0  0  0
    5.4887   -3.1027    1.6238 H   0  0  0  0  0  0  0  0  0  0  0  0
  1 16  1  0  0  0  0
  1 20  1  0  0  0  0
  2 21  1  0  0  0  0
  2 28  1  0  0  0  0
  3 27  1  0  0  0  0
  3 31  1  0  0  0  0
  4 15  1  0  0  0  0
  4 22  1  0  0  0  0
  5 17  2  0  0  0  0
  6 24  1  0  0  0  0
  6 46  1  0  0  0  0
  7 23  2  0  0  0  0
  8 24  2  0  0  0  0
  9 16  1  0  0  0  0
  9 17  1  0  0  0  0
  9 18  1  0  0  0  0
 10 15  1  0  0  0  0
 10 23  1  0  0  0  0
 10 34  1  0  0  0  0
 11 13  1  0  0  0  0
 11 28  1  0  0  0  0
 11 32  1  0  0  0  0
 12 14  1  0  0  0  0
 12 28  2  0  0  0  0
 13 14  2  0  0  0  0
 15 16  1  0  0  0  0
 15 17  1  0  0  0  0
 16 33  1  0  0  0  0
 18 19  2  0  0  0  0
 18 24  1  0  0  0  0
 19 20  1  0  0  0  0
 19 21  1  0  0  0  0
 20 35  1  0  0  0  0
 20 36  1  0  0  0  0
 21 37  1  0  0  0  0
 21 38  1  0  0  0  0
 22 26  1  0  0  0  0
 22 39  1  0  0  0  0
 22 40  1  0  0  0  0
 23 25  1  0  0  0  0
 25 27  1  0  0  0  0
 25 41  1  0  0  0  0
 25 42  1  0  0  0  0
 26 43  1  0  0  0  0
 26 44  1  0  0  0  0
 26 45  1  0  0  0  0
 27 29  2  0  0  0  0
 29 30  1  0  0  0  0
 29 47  1  0  0  0  0
 30 31  2  0  0  0  0
 30 48  1  0  0  0  0
 31 49  1  0  0  0  0
 32 50  1  0  0  0  0
 32 51  1  0  0  0  0
 32 52  1  0  0  0  0
M  END
> <PUBCHEM_COMPOUND_CID>
73213686

> <PUBCHEM_CONFORMER_RMSD>
1

> <PUBCHEM_CONFORMER_DIVERSEORDER>
1
178
94
46
183
162
222
184
166
180
91
111
81
62
117
15
217
103
195
173
42
57
164
163
25
191
137
47
24
107
71
207
216
152
206
128
112
55
155
182
49
131
132
171
100
210
190
208
90
151
73
109
105
147
64
126
177
204
134
214
140
170
193
53
97
159
28
220
34
104
5
16
150
113
26
154
80
161
72
95
7
115
149
181
56
203
167
168
75
123
32
43
129
174
116
205
19
121
76
179
78
96
36
120
146
176
2
118
93
59
58
48
209
18
156
20
99
213
196
142
211
68
194
14
212
218
160
82
106
130
9
188
45
12
175
215
223
77
110
108
133
136
50
127
139
22
44
201
85
38
11
35
197
114
66
169
221
124
74
189
219
40
98
186
92
200
70
17
69
153
87
79
122
37
102
33
119
27
138
61
144
84
125
172
63
31
187
143
54
199
10
157
65
148
67
8
52
145
198
23
41
3
60
4
141
21
165
88
101
202
29
192
135
13
89
51
6
158
39
86
185
30
83

> <PUBCHEM_MMFF94_PARTIAL_CHARGES>
35
1 -0.45
10 -0.65
11 0.31
12 -0.34
13 -0.42
15 0.54
16 0.44
17 0.58
18 0.12
19 -0.28
2 -0.29
20 0.37
21 0.37
22 0.28
23 0.57
24 0.71
25 0.24
27 -0.14
28 0.24
29 -0.15
3 -0.08
30 -0.15
31 -0.11
32 0.26
34 0.37
4 -0.54
46 0.5
47 0.15
48 0.15
49 0.15
5 -0.57
6 -0.65
7 -0.57
8 -0.57
9 -0.39

> <PUBCHEM_EFFECTIVE_ROTOR_COUNT>
10.6

> <PUBCHEM_PHARMACOPHORE_FEATURES>
12
1 10 donor
1 4 acceptor
1 5 acceptor
1 6 acceptor
1 7 acceptor
1 8 acceptor
3 11 12 28 cation
3 6 8 24 anion
4 9 15 16 17 rings
5 11 12 13 14 28 rings
5 3 27 29 30 31 rings
6 1 9 16 18 19 20 rings

> <PUBCHEM_HEAVY_ATOM_COUNT>
32

> <PUBCHEM_ATOM_DEF_STEREO_COUNT>
1

> <PUBCHEM_ATOM_UDEF_STEREO_COUNT>
1

> <PUBCHEM_BOND_DEF_STEREO_COUNT>
0

> <PUBCHEM_BOND_UDEF_STEREO_COUNT>
0

> <PUBCHEM_ISOTOPIC_ATOM_COUNT>
0

> <PUBCHEM_COMPONENT_COUNT>
1

> <PUBCHEM_CACTVS_TAUTO_COUNT>
2

> <PUBCHEM_CONFORMER_ID>
045D26F600000001

> <PUBCHEM_MMFF94_ENERGY>
62.6036

> <PUBCHEM_FEATURE_SELFOVERLAP>
61.201

> <PUBCHEM_SHAPE_FINGERPRINT>
10042902 136 18262516030025487026
10940486 97 18261681397721283421
117089 54 17753904010354224531
12422481 6 15913056400087325700
12633257 1 16629405933427810623
1361 4 18410572860968025690
13947920 24 11242239749592458014
14068700 675 18263924504853054874
14251751 18 18410295856197344514
14739800 52 10663831745232352878
14844126 61 18409175415726269961
14856354 85 18342741775950959316
14950920 106 17774448299065800891
15439362 3 17328585021787651681
15484559 13 13924647615749467892
17980427 26 17405418911421374229
20775530 9 18191008196355267195
23559900 14 18338788013673374641
397830 11 18200303442524381504
4073 2 18412261697636724744
463206 1 17974008646333316739
484985 159 18409724059096460099
66674814 147 17604427517655093106
7970288 3 18122060077087960011
8863177 126 18270959163157224714

> <PUBCHEM_SHAPE_MULTIPOLES>
610.86
15.63
5.88
1.72
29.81
3.83
0.79
13.02
-2.68
-12.43
-0.82
0.22
-1.05
-1.08

> <PUBCHEM_SHAPE_SELFOVERLAP>
1256.289

> <PUBCHEM_SHAPE_VOLUME>
350.8

> <PUBCHEM_COORDINATE_TYPE>
2
5
10

$$$$
