13402533
  -OEChem-04152518213D

 46 49  0     1  0  0  0  0  0999 V2000
   -0.0785   -0.5316    2.0848 S   0  0  0  0  0  0  0  0  0  0  0  0
   -4.6735   -0.2365    0.7133 S   0  0  0  0  0  0  0  0  0  0  0  0
    7.8024    0.0902   -0.5092 S   0  0  0  0  0  0  0  0  0  0  0  0
    6.9257   -2.7167   -0.4622 S   0  0  0  0  0  0  0  0  0  0  0  0
    0.4582    3.3397   -0.4329 O   0  0  0  0  0  0  0  0  0  0  0  0
    3.8602    0.0084    1.9393 O   0  0  0  0  0  0  0  0  0  0  0  0
   -1.5561    1.8607   -2.3895 O   0  0  0  0  0  0  0  0  0  0  0  0
   -3.2487    2.2628   -0.9051 O   0  0  0  0  0  0  0  0  0  0  0  0
    9.3409   -1.9420   -1.1540 O   0  0  0  0  0  0  0  0  0  0  0  0
   -0.2291    1.1297    0.0193 N   0  0  0  0  0  0  0  0  0  0  0  0
    2.9543    1.4996    0.4079 N   0  0  0  0  0  0  0  0  0  0  0  0
   -7.3753   -0.7758    0.4593 N   0  0  0  0  0  0  0  0  0  0  0  0
   -6.1726   -1.7580   -1.0545 N   0  0  0  0  0  0  0  0  0  0  0  0
   -8.2477   -1.4557   -0.2976 N   0  0  0  0  0  0  0  0  0  0  0  0
   -7.5065   -2.0541   -1.2221 N   0  0  0  0  0  0  0  0  0  0  0  0
    0.7149    0.2232    0.6471 C   0  0  1  0  0  0  0  0  0  0  0  0
    1.5843    1.4704    0.9188 C   0  0  2  0  0  0  0  0  0  0  0  0
    0.5641    2.2230    0.0179 C   0  0  0  0  0  0  0  0  0  0  0  0
   -1.4802    0.7688   -0.3659 C   0  0  0  0  0  0  0  0  0  0  0  0
   -2.0496   -0.3809    0.0680 C   0  0  0  0  0  0  0  0  0  0  0  0
   -1.3955   -1.3091    1.0891 C   0  0  0  0  0  0  0  0  0  0  0  0
    3.9895    0.7538    0.9719 C   0  0  0  0  0  0  0  0  0  0  0  0
   -3.3993   -0.8903   -0.3776 C   0  0  0  0  0  0  0  0  0  0  0  0
    5.3080    0.9682    0.2526 C   0  0  0  0  0  0  0  0  0  0  0  0
   -2.2131    1.7132   -1.2222 C   0  0  0  0  0  0  0  0  0  0  0  0
    6.2248   -0.2433    0.3406 C   0  0  1  0  0  0  0  0  0  0  0  0
    5.6172   -1.4674   -0.3277 C   0  0  0  0  0  0  0  0  0  0  0  0
    8.2322   -1.5895   -0.7798 C   0  0  0  0  0  0  0  0  0  0  0  0
   -6.1144   -0.9655   -0.0090 C   0  0  0  0  0  0  0  0  0  0  0  0
   -7.8366    0.0046    1.5795 C   0  0  0  0  0  0  0  0  0  0  0  0
    1.1512   -0.4886   -0.0645 H   0  0  0  0  0  0  0  0  0  0  0  0
    1.5545    1.8501    1.9492 H   0  0  0  0  0  0  0  0  0  0  0  0
    3.1773    2.0968   -0.3850 H   0  0  0  0  0  0  0  0  0  0  0  0
   -0.9795   -2.1805    0.5713 H   0  0  0  0  0  0  0  0  0  0  0  0
   -2.1399   -1.6730    1.8047 H   0  0  0  0  0  0  0  0  0  0  0  0
   -3.6061   -0.5821   -1.4086 H   0  0  0  0  0  0  0  0  0  0  0  0
   -3.4144   -1.9864   -0.3718 H   0  0  0  0  0  0  0  0  0  0  0  0
    5.1102    1.2195   -0.7975 H   0  0  0  0  0  0  0  0  0  0  0  0
    5.7802    1.8436    0.7160 H   0  0  0  0  0  0  0  0  0  0  0  0
    6.4496   -0.4631    1.3921 H   0  0  0  0  0  0  0  0  0  0  0  0
    4.7884   -1.8827    0.2530 H   0  0  0  0  0  0  0  0  0  0  0  0
    5.2416   -1.2407   -1.3324 H   0  0  0  0  0  0  0  0  0  0  0  0
   -2.0121    2.4849   -2.9935 H   0  0  0  0  0  0  0  0  0  0  0  0
   -7.3721   -0.3841    2.4889 H   0  0  0  0  0  0  0  0  0  0  0  0
   -8.9240   -0.0764    1.6581 H   0  0  0  0  0  0  0  0  0  0  0  0
   -7.5564    1.0479    1.4153 H   0  0  0  0  0  0  0  0  0  0  0  0
  1 16  1  0  0  0  0
  1 21  1  0  0  0  0
  2 23  1  0  0  0  0
  2 29  1  0  0  0  0
  3 26  1  0  0  0  0
  3 28  1  0  0  0  0
  4 27  1  0  0  0  0
  4 28  1  0  0  0  0
  5 18  2  0  0  0  0
  6 22  2  0  0  0  0
  7 25  1  0  0  0  0
  7 43  1  0  0  0  0
  8 25  2  0  0  0  0
  9 28  2  0  0  0  0
 10 16  1  0  0  0  0
 10 18  1  0  0  0  0
 10 19  1  0  0  0  0
 11 17  1  0  0  0  0
 11 22  1  0  0  0  0
 11 33  1  0  0  0  0
 12 14  1  0  0  0  0
 12 29  1  0  0  0  0
 12 30  1  0  0  0  0
 13 15  1  0  0  0  0
 13 29  2  0  0  0  0
 14 15  2  0  0  0  0
 16 17  1  0  0  0  0
 16 31  1  0  0  0  0
 17 18  1  0  0  0  0
 17 32  1  0  0  0  0
 19 20  2  0  0  0  0
 19 25  1  0  0  0  0
 20 21  1  0  0  0  0
 20 23  1  0  0  0  0
 21 34  1  0  0  0  0
 21 35  1  0  0  0  0
 22 24  1  0  0  0  0
 23 36  1  0  0  0  0
 23 37  1  0  0  0  0
 24 26  1  0  0  0  0
 24 38  1  0  0  0  0
 24 39  1  0  0  0  0
 26 27  1  0  0  0  0
 26 40  1  0  0  0  0
 27 41  1  0  0  0  0
 27 42  1  0  0  0  0
 30 44  1  0  0  0  0
 30 45  1  0  0  0  0
 30 46  1  0  0  0  0
M  END
> <PUBCHEM_COMPOUND_CID>
13402533

> <PUBCHEM_CONFORMER_RMSD>
1.2

> <PUBCHEM_CONFORMER_DIVERSEORDER>
1
416
516
313
649
171
258
611
410
49
311
163
6
618
47
245
605
77
336
395
276
425
208
566
269
246
129
11
463
552
172
257
88
402
529
515
513
262
71
351
579
73
621
390
134
578
122
329
307
151
204
42
83
256
72
101
522
111
403
369
148
167
539
40
468
506
124
30
406
241
561
209
44
634
264
450
662
120
181
197
628
17
56
534
164
562
341
419
66
25
533
31
140
567
105
230
225
142
335
63
322
641
293
7
496
16
52
85
481
147
260
327
150
252
37
383
315
159
321
12
381
360
354
593
21
345
274
433
94
286
65
95
278
520
599
20
26
547
644
51
55
281
279
9
196
43
479
60
575
166
57
39
62
319
365
27
118
48
194
33
2
484
442
603
128
483
271
585
305
343
298
14
612
18
130
3
191
36
489
4
82
10
192
412

> <PUBCHEM_MMFF94_PARTIAL_CHARGES>
31
1 -0.45
10 -0.39
11 -0.65
12 0.31
13 -0.34
14 -0.42
16 0.44
17 0.28
18 0.58
19 0.12
2 -0.29
20 -0.28
21 0.37
22 0.57
23 0.37
24 0.06
25 0.71
26 0.23
27 0.23
28 0.85
29 0.24
3 -0.37
30 0.26
33 0.37
4 -0.37
43 0.5
5 -0.57
6 -0.57
7 -0.65
8 -0.57
9 -0.57

> <PUBCHEM_EFFECTIVE_ROTOR_COUNT>
9.4

> <PUBCHEM_PHARMACOPHORE_FEATURES>
11
1 11 donor
1 5 acceptor
1 6 acceptor
1 7 acceptor
1 8 acceptor
3 12 13 29 cation
3 7 8 25 anion
4 10 16 17 18 rings
5 12 13 14 15 29 rings
5 3 4 26 27 28 rings
6 1 10 16 19 20 21 rings

> <PUBCHEM_HEAVY_ATOM_COUNT>
30

> <PUBCHEM_ATOM_DEF_STEREO_COUNT>
0

> <PUBCHEM_ATOM_UDEF_STEREO_COUNT>
3

> <PUBCHEM_BOND_DEF_STEREO_COUNT>
0

> <PUBCHEM_BOND_UDEF_STEREO_COUNT>
0

> <PUBCHEM_ISOTOPIC_ATOM_COUNT>
0

> <PUBCHEM_COMPONENT_COUNT>
1

> <PUBCHEM_CACTVS_TAUTO_COUNT>
2

> <PUBCHEM_CONFORMER_ID>
00CC81A500000001

> <PUBCHEM_MMFF94_ENERGY>
61.0699

> <PUBCHEM_FEATURE_SELFOVERLAP>
56.136

> <PUBCHEM_SHAPE_FINGERPRINT>
10 15 13830130624451378258
10076449 9 18408045104539984008
10299344 5 18130791169926839090
12236239 1 18270113665065276753
12592606 108 18202283623393635675
13540713 5 16735210622892782376
13617811 41 17167860872331942886
13673619 4 18408319990810548360
14216079 64 18343021090775105202
14294032 229 17242161363049447677
14931854 50 17676200256666056210
15131766 46 16197032937075930304
15198563 99 17458894969202423365
16120349 21 18202282524361945783
16994733 274 12396287167333655007
18603816 31 17417802994025536831
18643901 69 18334297556460611950
19301679 30 16701473256262651766
20105231 36 17894917343041465163
2026 5 18269274565890454110
21130935 74 18058727052097410747
21150785 3 14634868656376774403
21267235 1 18335140899075108225
21307412 95 18260271883812121954
21403212 168 12895073998375926451
21792934 111 12607414285928753491
23569917 315 18268994362208453175
23569943 247 18341049605997028099
23576562 1 17024031660812568503
24180151 214 14056713530838775853
255183 451 18335137622358440420
4258327 124 13551486864486619514
437815 12 18409450314406839369
439807 62 18410295801032825606
59682541 35 10735877287755506679
59755656 215 17894903040789585667

> <PUBCHEM_SHAPE_MULTIPOLES>
573.55
26.31
2.63
1.51
8.24
0.62
0.14
-21.99
-5.31
1.06
-1.03
-0.8
0.14
1.05

> <PUBCHEM_SHAPE_SELFOVERLAP>
1163.173

> <PUBCHEM_SHAPE_VOLUME>
336.2

> <PUBCHEM_COORDINATE_TYPE>
2
5
10

$$$$
