192760
  Mrv15b2304112506123D          

 49 52  0  0  1  0            999 V2000
    0.5444    2.0872   -0.7167 S   0  0  0  0  0  0  0  0  0  0  0  0
   -2.4867   -1.5366    1.6068 N   0  0  1  0  0  0  0  0  0  0  0  0
    0.1885   -0.8475    0.2828 N   0  0  0  0  0  0  0  0  0  0  0  0
   -5.0000   -5.6640    1.9354 N   0  0  1  0  0  0  0  0  0  0  0  0
   -1.4826   -2.0848    2.4766 C   0  0  2  0  0  0  0  0  0  0  0  0
   -0.2382   -2.7518    1.8510 C   0  0  2  0  0  0  0  0  0  0  0  0
   -0.0394   -2.2889    0.4002 C   0  0  1  0  0  0  0  0  0  0  0  0
   -0.9788   -0.0279    0.2866 C   0  0  0  0  0  0  0  0  0  0  0  0
   -2.2755   -0.4694    0.7986 C   0  0  0  0  0  0  0  0  0  0  0  0
   -3.0851   -2.5763    0.8658 C   0  0  1  0  0  0  0  0  0  0  0  0
   -3.7323   -3.5783    1.8240 C   0  0  2  0  0  0  0  0  0  0  0  0
    1.5295   -0.4145    0.0328 C   0  0  0  0  0  0  0  0  0  0  0  0
   -0.9518    1.3103   -0.2180 C   0  0  0  0  0  0  0  0  0  0  0  0
   -3.4607    0.2735    0.6054 C   0  0  0  0  0  0  0  0  0  0  0  0
   -4.3816   -4.7065    1.0199 C   0  0  2  0  0  0  0  0  0  0  0  0
    1.8171    0.8972   -0.5093 C   0  0  0  0  0  0  0  0  0  0  0  0
   -2.1417    2.0846   -0.3512 C   0  0  0  0  0  0  0  0  0  0  0  0
   -3.4014    1.5574    0.0232 C   0  0  0  0  0  0  0  0  0  0  0  0
    2.6760   -1.2730    0.2562 C   0  0  0  0  0  0  0  0  0  0  0  0
    3.1255    1.2919   -0.9325 C   0  0  0  0  0  0  0  0  0  0  0  0
    3.9829   -0.8957   -0.1432 C   0  0  0  0  0  0  0  0  0  0  0  0
    4.1967    0.3680   -0.7599 C   0  0  0  0  0  0  0  0  0  0  0  0
   -5.6205   -6.7420    1.1671 C   0  0  0  0  0  0  0  0  0  0  0  0
   -3.9785   -6.2217    2.8203 C   0  0  0  0  0  0  0  0  0  0  0  0
   -1.9488   -2.7739    3.1808 H   0  0  0  0  0  0  0  0  0  0  0  0
   -1.0835   -1.2196    3.0060 H   0  0  0  0  0  0  0  0  0  0  0  0
   -0.3566   -3.8351    1.8738 H   0  0  0  0  0  0  0  0  0  0  0  0
    0.6195   -2.4752    2.4641 H   0  0  0  0  0  0  0  0  0  0  0  0
   -0.9101   -2.5686   -0.1929 H   0  0  0  0  0  0  0  0  0  0  0  0
    0.8578   -2.8085    0.0636 H   0  0  0  0  0  0  0  0  0  0  0  0
   -3.8467   -2.1605    0.2061 H   0  0  0  0  0  0  0  0  0  0  0  0
   -2.3252   -3.0819    0.2701 H   0  0  0  0  0  0  0  0  0  0  0  0
   -4.4922   -3.0727    2.4197 H   0  0  0  0  0  0  0  0  0  0  0  0
   -2.9707   -3.9941    2.4837 H   0  0  0  0  0  0  0  0  0  0  0  0
   -4.3596   -0.1179    0.8867 H   0  0  0  0  0  0  0  0  0  0  0  0
   -5.1432   -4.2907    0.3602 H   0  0  0  0  0  0  0  0  0  0  0  0
   -3.6216   -5.2121    0.4242 H   0  0  0  0  0  0  0  0  0  0  0  0
   -2.0846    3.0331   -0.7220 H   0  0  0  0  0  0  0  0  0  0  0  0
   -4.2536    2.0978   -0.1259 H   0  0  0  0  0  0  0  0  0  0  0  0
    2.5385   -2.1742    0.7137 H   0  0  0  0  0  0  0  0  0  0  0  0
    3.2873    2.2099   -1.3466 H   0  0  0  0  0  0  0  0  0  0  0  0
    4.7676   -1.5288    0.0111 H   0  0  0  0  0  0  0  0  0  0  0  0
    5.1314    0.6169   -1.0836 H   0  0  0  0  0  0  0  0  0  0  0  0
   -6.0815   -7.4559    1.8497 H   0  0  0  0  0  0  0  0  0  0  0  0
   -6.3821   -6.3262    0.5074 H   0  0  0  0  0  0  0  0  0  0  0  0
   -4.8605   -7.2476    0.5714 H   0  0  0  0  0  0  0  0  0  0  0  0
   -4.4395   -6.9356    3.5029 H   0  0  0  0  0  0  0  0  0  0  0  0
   -3.5159   -5.4180    3.3931 H   0  0  0  0  0  0  0  0  0  0  0  0
   -3.2185   -6.7273    2.2246 H   0  0  0  0  0  0  0  0  0  0  0  0
  1 13  1  0  0  0  0
  1 16  1  0  0  0  0
  2  5  1  0  0  0  0
  2  9  1  0  0  0  0
  2 10  1  0  0  0  0
  3  7  1  0  0  0  0
  3  8  1  0  0  0  0
  3 12  1  0  0  0  0
  4 15  1  0  0  0  0
  4 23  1  0  0  0  0
  4 24  1  0  0  0  0
  5  6  1  0  0  0  0
  5 25  1  0  0  0  0
  5 26  1  0  0  0  0
  6  7  1  0  0  0  0
  6 27  1  0  0  0  0
  6 28  1  0  0  0  0
  7 29  1  0  0  0  0
  7 30  1  0  0  0  0
  8  9  2  0  0  0  0
  8 13  1  0  0  0  0
  9 14  1  0  0  0  0
 10 11  1  0  0  0  0
 10 31  1  0  0  0  0
 10 32  1  0  0  0  0
 11 15  1  0  0  0  0
 11 33  1  0  0  0  0
 11 34  1  0  0  0  0
 12 16  1  0  0  0  0
 12 19  2  0  0  0  0
 13 17  2  0  0  0  0
 14 18  2  0  0  0  0
 14 35  1  0  0  0  0
 15 36  1  0  0  0  0
 15 37  1  0  0  0  0
 16 20  2  0  0  0  0
 17 18  1  0  0  0  0
 17 38  1  0  0  0  0
 18 39  1  0  0  0  0
 19 21  1  0  0  0  0
 19 40  1  0  0  0  0
 20 22  1  0  0  0  0
 20 41  1  0  0  0  0
 21 22  2  0  0  0  0
 21 42  1  0  0  0  0
 22 43  1  0  0  0  0
 23 44  1  0  0  0  0
 23 45  1  0  0  0  0
 23 46  1  0  0  0  0
 24 47  1  0  0  0  0
 24 48  1  0  0  0  0
 24 49  1  0  0  0  0
M  END
