192760
  MJ221101                      

 49 52  0  0  1  0  0  0  0  0999 V2000
    0.9522    1.8256    0.0000 S   0  0  0  0  0  0  0  0  0  0  0  0
   -0.5997   -0.6402    0.0000 N   0  0  0  0  0  0  0  0  0  0  0  0
    1.0057    0.2867    0.0000 N   0  0  0  0  0  0  0  0  0  0  0  0
   -3.3859   -0.0042    0.0000 N   0  0  0  0  0  0  0  0  0  0  0  0
   -0.0385   -1.2448    0.0000 C   0  0  0  0  0  0  0  0  0  0  0  0
    0.7842   -1.1833    0.0000 C   0  0  0  0  0  0  0  0  0  0  0  0
    1.2488   -0.5017    0.0000 C   0  0  0  0  0  0  0  0  0  0  0  0
    0.2378    0.5881    0.0000 C   0  0  0  0  0  0  0  0  0  0  0  0
   -0.4767    0.1756    0.0000 C   0  0  0  0  0  0  0  0  0  0  0  0
   -1.3880   -0.8833    0.0000 C   0  0  0  0  0  0  0  0  0  0  0  0
   -1.9928   -0.3222    0.0000 C   0  0  0  0  0  0  0  0  0  0  0  0
    1.6667    0.5881    0.0000 C   0  0  0  0  0  0  0  0  0  0  0  0
    0.2378    1.4131    0.0000 C   0  0  0  0  0  0  0  0  0  0  0  0
   -1.1912    0.5881    0.0000 C   0  0  0  0  0  0  0  0  0  0  0  0
   -2.7811   -0.5654    0.0000 C   0  0  0  0  0  0  0  0  0  0  0  0
    1.6667    1.4131    0.0000 C   0  0  0  0  0  0  0  0  0  0  0  0
   -0.4767    1.8256    0.0000 C   0  0  0  0  0  0  0  0  0  0  0  0
   -1.1912    1.4131    0.0000 C   0  0  0  0  0  0  0  0  0  0  0  0
    2.3812    0.1756    0.0000 C   0  0  0  0  0  0  0  0  0  0  0  0
    2.3812    1.8256    0.0000 C   0  0  0  0  0  0  0  0  0  0  0  0
    3.0957    0.5881    0.0000 C   0  0  0  0  0  0  0  0  0  0  0  0
    3.0957    1.4131    0.0000 C   0  0  0  0  0  0  0  0  0  0  0  0
   -4.1742   -0.2474    0.0000 C   0  0  0  0  0  0  0  0  0  0  0  0
   -3.2023    0.8001    0.0000 C   0  0  0  0  0  0  0  0  0  0  0  0
   -0.6433   -1.8060    0.0000 H   0  0  0  0  0  0  0  0  0  0  0  0
    0.0231   -2.0676    0.0000 H   0  0  0  0  0  0  0  0  0  0  0  0
    0.8458   -2.0059    0.0000 H   0  0  0  0  0  0  0  0  0  0  0  0
    1.4657   -1.6480    0.0000 H   0  0  0  0  0  0  0  0  0  0  0  0
    1.9306   -0.9664    0.0000 H   0  0  0  0  0  0  0  0  0  0  0  0
    2.0373   -0.2585    0.0000 H   0  0  0  0  0  0  0  0  0  0  0  0
   -1.9130   -1.5197    0.0000 H   0  0  0  0  0  0  0  0  0  0  0  0
   -1.1911   -1.6845    0.0000 H   0  0  0  0  0  0  0  0  0  0  0  0
   -1.4677    0.3142    0.0000 H   0  0  0  0  0  0  0  0  0  0  0  0
   -2.1897    0.4789    0.0000 H   0  0  0  0  0  0  0  0  0  0  0  0
   -1.9526    0.9055    0.0000 H   0  0  0  0  0  0  0  0  0  0  0  0
   -3.3061   -1.2018    0.0000 H   0  0  0  0  0  0  0  0  0  0  0  0
   -2.5842   -1.3665    0.0000 H   0  0  0  0  0  0  0  0  0  0  0  0
   -0.4767    2.6506    0.0000 H   0  0  0  0  0  0  0  0  0  0  0  0
   -1.6264    2.1140    0.0000 H   0  0  0  0  0  0  0  0  0  0  0  0
    2.9203   -0.4489    0.0000 H   0  0  0  0  0  0  0  0  0  0  0  0
    2.3812    2.6506    0.0000 H   0  0  0  0  0  0  0  0  0  0  0  0
    3.8101    0.1756    0.0000 H   0  0  0  0  0  0  0  0  0  0  0  0
    3.8101    1.8256    0.0000 H   0  0  0  0  0  0  0  0  0  0  0  0
   -4.4174    0.5409    0.0000 H   0  0  0  0  0  0  0  0  0  0  0  0
   -4.9626   -0.4906    0.0000 H   0  0  0  0  0  0  0  0  0  0  0  0
   -3.9311   -1.0358    0.0000 H   0  0  0  0  0  0  0  0  0  0  0  0
   -2.3980    0.6165    0.0000 H   0  0  0  0  0  0  0  0  0  0  0  0
   -3.0187    1.6044    0.0000 H   0  0  0  0  0  0  0  0  0  0  0  0
   -4.0066    0.9837    0.0000 H   0  0  0  0  0  0  0  0  0  0  0  0
  1 13  1  0  0  0  0
  1 16  1  0  0  0  0
  2  5  1  0  0  0  0
  2  9  1  0  0  0  0
  2 10  1  0  0  0  0
  3  7  1  0  0  0  0
  3  8  1  0  0  0  0
  3 12  1  0  0  0  0
  4 15  1  0  0  0  0
  4 23  1  0  0  0  0
  4 24  1  0  0  0  0
  5  6  1  0  0  0  0
  5 25  1  0  0  0  0
  5 26  1  0  0  0  0
  6  7  1  0  0  0  0
  6 27  1  0  0  0  0
  6 28  1  0  0  0  0
  7 29  1  0  0  0  0
  7 30  1  0  0  0  0
  8  9  2  0  0  0  0
  8 13  1  0  0  0  0
  9 14  1  0  0  0  0
 10 11  1  0  0  0  0
 10 31  1  0  0  0  0
 10 32  1  0  0  0  0
 11 15  1  0  0  0  0
 11 33  1  0  0  0  0
 11 34  1  0  0  0  0
 12 16  1  0  0  0  0
 12 19  2  0  0  0  0
 13 17  2  0  0  0  0
 14 18  2  0  0  0  0
 14 35  1  0  0  0  0
 15 36  1  0  0  0  0
 15 37  1  0  0  0  0
 16 20  2  0  0  0  0
 17 18  1  0  0  0  0
 17 38  1  0  0  0  0
 18 39  1  0  0  0  0
 19 21  1  0  0  0  0
 19 40  1  0  0  0  0
 20 22  1  0  0  0  0
 20 41  1  0  0  0  0
 21 22  2  0  0  0  0
 21 42  1  0  0  0  0
 22 43  1  0  0  0  0
 23 44  1  0  0  0  0
 23 45  1  0  0  0  0
 23 46  1  0  0  0  0
 24 47  1  0  0  0  0
 24 48  1  0  0  0  0
 24 49  1  0  0  0  0
M  END
