@<TRIPOS>MOLECULE
lig
 49 52 0 0 0
SMALL
GASTEIGER

@<TRIPOS>ATOM
      1 S           0.5444    2.0872   -0.7167 S.3     1  UNL11      -0.0857
      2 N          -2.4867   -1.5366    1.6068 N.pl3   1  UNL11      -0.3283
      3 N           0.1885   -0.8475    0.2828 N.pl3   1  UNL11      -0.2968
      4 N          -5.0000   -5.6640    1.9354 N.3     1  UNL11      -0.3083
      5 C          -1.4826   -2.0848    2.4766 C.3     1  UNL11       0.0137
      6 C          -0.2382   -2.7518    1.8510 C.3     1  UNL11      -0.0210
      7 C          -0.0394   -2.2889    0.4002 C.3     1  UNL11       0.0188
      8 C          -0.9788   -0.0279    0.2866 C.ar    1  UNL11       0.0692
      9 C          -2.2755   -0.4694    0.7986 C.ar    1  UNL11       0.0524
     10 C          -3.0851   -2.5763    0.8658 C.3     1  UNL11       0.0134
     11 C          -3.7323   -3.5783    1.8240 C.3     1  UNL11      -0.0244
     12 C           1.5295   -0.4145    0.0328 C.ar    1  UNL11       0.0479
     13 C          -0.9518    1.3103   -0.2180 C.ar    1  UNL11       0.0359
     14 C          -3.4607    0.2735    0.6054 C.ar    1  UNL11      -0.0388
     15 C          -4.3816   -4.7065    1.0199 C.3     1  UNL11      -0.0003
     16 C           1.8171    0.8972   -0.5093 C.ar    1  UNL11       0.0341
     17 C          -2.1417    2.0846   -0.3512 C.ar    1  UNL11      -0.0461
     18 C          -3.4014    1.5574    0.0232 C.ar    1  UNL11      -0.0588
     19 C           2.6760   -1.2730    0.2562 C.ar    1  UNL11      -0.0393
     20 C           3.1255    1.2919   -0.9325 C.ar    1  UNL11      -0.0462
     21 C           3.9829   -0.8957   -0.1432 C.ar    1  UNL11      -0.0599
     22 C           4.1967    0.3680   -0.7599 C.ar    1  UNL11      -0.0606
     23 C          -5.6205   -6.7420    1.1671 C.3     1  UNL11      -0.0130
     24 C          -3.9785   -6.2217    2.8203 C.3     1  UNL11      -0.0130
     25 H          -1.9488   -2.7739    3.1808 H       1  UNL11       0.0464
     26 H          -1.0835   -1.2196    3.0060 H       1  UNL11       0.0464
     27 H          -0.3566   -3.8351    1.8738 H       1  UNL11       0.0296
     28 H           0.6195   -2.4752    2.4641 H       1  UNL11       0.0296
     29 H          -0.9101   -2.5686   -0.1929 H       1  UNL11       0.0468
     30 H           0.8578   -2.8085    0.0636 H       1  UNL11       0.0468
     31 H          -3.8467   -2.1605    0.2061 H       1  UNL11       0.0464
     32 H          -2.3252   -3.0819    0.2701 H       1  UNL11       0.0464
     33 H          -4.4922   -3.0727    2.4197 H       1  UNL11       0.0293
     34 H          -2.9707   -3.9941    2.4837 H       1  UNL11       0.0293
     35 H          -4.3596   -0.1179    0.8867 H       1  UNL11       0.0637
     36 H          -5.1432   -4.2907    0.3602 H       1  UNL11       0.0427
     37 H          -3.6216   -5.2121    0.4242 H       1  UNL11       0.0427
     38 H          -2.0846    3.0331   -0.7220 H       1  UNL11       0.0629
     39 H          -4.2536    2.0978   -0.1259 H       1  UNL11       0.0618
     40 H           2.5385   -2.1742    0.7137 H       1  UNL11       0.0636
     41 H           3.2873    2.2099   -1.3466 H       1  UNL11       0.0629
     42 H           4.7676   -1.5288    0.0111 H       1  UNL11       0.0618
     43 H           5.1314    0.6169   -1.0836 H       1  UNL11       0.0618
     44 H          -6.0815   -7.4559    1.8497 H       1  UNL11       0.0391
     45 H          -6.3821   -6.3262    0.5074 H       1  UNL11       0.0391
     46 H          -4.8605   -7.2476    0.5714 H       1  UNL11       0.0391
     47 H          -4.4395   -6.9356    3.5029 H       1  UNL11       0.0391
     48 H          -3.5159   -5.4180    3.3931 H       1  UNL11       0.0391
     49 H          -3.2185   -6.7273    2.2246 H       1  UNL11       0.0391
@<TRIPOS>BOND
     1     1    13    1
     2     1    16    1
     3     2     5    1
     4     2     9    1
     5     2    10    1
     6     3     7    1
     7     3     8    1
     8     3    12    1
     9     4    15    1
    10     4    23    1
    11     4    24    1
    12     5     6    1
    13     5    25    1
    14     5    26    1
    15     6     7    1
    16     6    27    1
    17     6    28    1
    18     7    29    1
    19     7    30    1
    20     8     9   ar
    21     8    13   ar
    22     9    14   ar
    23    10    11    1
    24    10    31    1
    25    10    32    1
    26    11    15    1
    27    11    33    1
    28    11    34    1
    29    12    16   ar
    30    12    19   ar
    31    13    17   ar
    32    14    18   ar
    33    14    35    1
    34    15    36    1
    35    15    37    1
    36    16    20   ar
    37    17    18   ar
    38    17    38    1
    39    18    39    1
    40    19    21   ar
    41    19    40    1
    42    20    22   ar
    43    20    41    1
    44    21    22   ar
    45    21    42    1
    46    22    43    1
    47    23    44    1
    48    23    45    1
    49    23    46    1
    50    24    47    1
    51    24    48    1
    52    24    49    1
