192760
  -OEChem-04112506123D

 49 52  0     1  0  0  0  0  0999 V2000
    3.2844   -1.9103   -0.7138 S   0  0  0  0  0  0  0  0  0  0  0  0
   -1.3945    0.0428    0.8737 N   0  0  3  0  0  0  0  0  0  0  0  0
    1.3548    0.4585   -0.1868 N   0  0  0  0  0  0  0  0  0  0  0  0
   -5.5606    0.8645   -0.1473 N   0  0  0  0  0  0  0  0  0  0  0  0
   -0.7885    1.1989    1.5216 C   0  0  0  0  0  0  0  0  0  0  0  0
   -0.3015    2.1881    0.4755 C   0  0  0  0  0  0  0  0  0  0  0  0
    0.4334    1.5025   -0.6717 C   0  0  0  0  0  0  0  0  0  0  0  0
    0.7796   -0.8341    0.0208 C   0  0  0  0  0  0  0  0  0  0  0  0
   -0.5772   -1.0158    0.4588 C   0  0  0  0  0  0  0  0  0  0  0  0
   -2.8455   -0.0735    0.9039 C   0  0  0  0  0  0  0  0  0  0  0  0
   -3.3995   -0.2952   -0.5030 C   0  0  0  0  0  0  0  0  0  0  0  0
    2.7356    0.7715   -0.1633 C   0  0  0  0  0  0  0  0  0  0  0  0
    1.5719   -1.9846   -0.2221 C   0  0  0  0  0  0  0  0  0  0  0  0
   -1.0850   -2.3352    0.5156 C   0  0  0  0  0  0  0  0  0  0  0  0
   -4.9273   -0.3747   -0.5815 C   0  0  0  0  0  0  0  0  0  0  0  0
    3.7105   -0.2260   -0.3393 C   0  0  0  0  0  0  0  0  0  0  0  0
    1.0260   -3.2719   -0.1257 C   0  0  0  0  0  0  0  0  0  0  0  0
   -0.3009   -3.4452    0.2248 C   0  0  0  0  0  0  0  0  0  0  0  0
    3.1971    2.0840    0.0742 C   0  0  0  0  0  0  0  0  0  0  0  0
    5.0803    0.0882   -0.2884 C   0  0  0  0  0  0  0  0  0  0  0  0
    4.5591    2.3920    0.1276 C   0  0  0  0  0  0  0  0  0  0  0  0
    5.5024    1.3924   -0.0535 C   0  0  0  0  0  0  0  0  0  0  0  0
   -7.0148    0.7795   -0.2941 C   0  0  0  0  0  0  0  0  0  0  0  0
   -5.0398    2.0034   -0.9059 C   0  0  0  0  0  0  0  0  0  0  0  0
    0.0356    0.8860    2.1767 H   0  0  0  0  0  0  0  0  0  0  0  0
   -1.5006    1.7046    2.1854 H   0  0  0  0  0  0  0  0  0  0  0  0
    0.3406    2.9284    0.9647 H   0  0  0  0  0  0  0  0  0  0  0  0
   -1.1528    2.7418    0.0602 H   0  0  0  0  0  0  0  0  0  0  0  0
   -0.2930    1.0612   -1.3695 H   0  0  0  0  0  0  0  0  0  0  0  0
    0.9450    2.2558   -1.2848 H   0  0  0  0  0  0  0  0  0  0  0  0
   -3.1703   -0.8600    1.5948 H   0  0  0  0  0  0  0  0  0  0  0  0
   -3.2773    0.8514    1.3041 H   0  0  0  0  0  0  0  0  0  0  0  0
   -3.0296   -1.2449   -0.9064 H   0  0  0  0  0  0  0  0  0  0  0  0
   -2.9983    0.4563   -1.1938 H   0  0  0  0  0  0  0  0  0  0  0  0
   -2.1013   -2.5422    0.8407 H   0  0  0  0  0  0  0  0  0  0  0  0
   -5.2118   -0.6207   -1.6133 H   0  0  0  0  0  0  0  0  0  0  0  0
   -5.2665   -1.2043    0.0514 H   0  0  0  0  0  0  0  0  0  0  0  0
    1.6280   -4.1549   -0.3303 H   0  0  0  0  0  0  0  0  0  0  0  0
   -0.7214   -4.4438    0.2967 H   0  0  0  0  0  0  0  0  0  0  0  0
    2.5026    2.9021    0.2439 H   0  0  0  0  0  0  0  0  0  0  0  0
    5.8348   -0.6818   -0.4369 H   0  0  0  0  0  0  0  0  0  0  0  0
    4.8768    3.4134    0.3159 H   0  0  0  0  0  0  0  0  0  0  0  0
    6.5620    1.6253   -0.0144 H   0  0  0  0  0  0  0  0  0  0  0  0
   -7.4947    1.6858    0.0916 H   0  0  0  0  0  0  0  0  0  0  0  0
   -7.3186    0.6452   -1.3386 H   0  0  0  0  0  0  0  0  0  0  0  0
   -7.4117   -0.0574    0.2914 H   0  0  0  0  0  0  0  0  0  0  0  0
   -5.0926    1.8439   -1.9892 H   0  0  0  0  0  0  0  0  0  0  0  0
   -4.0111    2.2507   -0.6266 H   0  0  0  0  0  0  0  0  0  0  0  0
   -5.6171    2.9076   -0.6763 H   0  0  0  0  0  0  0  0  0  0  0  0
  1 13  1  0  0  0  0
  1 16  1  0  0  0  0
  2  5  1  0  0  0  0
  2  9  1  0  0  0  0
  2 10  1  0  0  0  0
  3  7  1  0  0  0  0
  3  8  1  0  0  0  0
  3 12  1  0  0  0  0
  4 15  1  0  0  0  0
  4 23  1  0  0  0  0
  4 24  1  0  0  0  0
  5  6  1  0  0  0  0
  5 25  1  0  0  0  0
  5 26  1  0  0  0  0
  6  7  1  0  0  0  0
  6 27  1  0  0  0  0
  6 28  1  0  0  0  0
  7 29  1  0  0  0  0
  7 30  1  0  0  0  0
  8  9  2  0  0  0  0
  8 13  1  0  0  0  0
  9 14  1  0  0  0  0
 10 11  1  0  0  0  0
 10 31  1  0  0  0  0
 10 32  1  0  0  0  0
 11 15  1  0  0  0  0
 11 33  1  0  0  0  0
 11 34  1  0  0  0  0
 12 16  1  0  0  0  0
 12 19  2  0  0  0  0
 13 17  2  0  0  0  0
 14 18  2  0  0  0  0
 14 35  1  0  0  0  0
 15 36  1  0  0  0  0
 15 37  1  0  0  0  0
 16 20  2  0  0  0  0
 17 18  1  0  0  0  0
 17 38  1  0  0  0  0
 18 39  1  0  0  0  0
 19 21  1  0  0  0  0
 19 40  1  0  0  0  0
 20 22  1  0  0  0  0
 20 41  1  0  0  0  0
 21 22  2  0  0  0  0
 21 42  1  0  0  0  0
 22 43  1  0  0  0  0
 23 44  1  0  0  0  0
 23 45  1  0  0  0  0
 23 46  1  0  0  0  0
 24 47  1  0  0  0  0
 24 48  1  0  0  0  0
 24 49  1  0  0  0  0
M  END
> <PUBCHEM_COMPOUND_CID>
192760

> <PUBCHEM_CONFORMER_RMSD>
0.8

> <PUBCHEM_CONFORMER_DIVERSEORDER>
1
26
14
24
41
33
17
35
27
2
10
22
39
36
6
38
29
23
31
37
40
11
12
30
32
7
13
19
8
4
15
5
3
16
20
9
34
28
25
21
18

> <PUBCHEM_MMFF94_PARTIAL_CHARGES>
29
1 -0.2
10 0.37
12 0.1
13 0.1
14 -0.15
15 0.27
16 0.1
17 -0.15
18 -0.15
19 -0.15
2 -0.84
20 -0.15
21 -0.15
22 -0.15
23 0.27
24 0.27
3 -0.57
35 0.15
38 0.15
39 0.15
4 -0.81
40 0.15
41 0.15
42 0.15
43 0.15
5 0.37
7 0.37
8 0.1
9 0.1

> <PUBCHEM_EFFECTIVE_ROTOR_COUNT>
5

> <PUBCHEM_PHARMACOPHORE_FEATURES>
7
1 2 cation
1 3 cation
1 4 cation
6 1 3 8 12 13 16 rings
6 12 16 19 20 21 22 rings
6 8 9 13 14 17 18 rings
7 2 3 5 6 7 8 9 rings

> <PUBCHEM_HEAVY_ATOM_COUNT>
24

> <PUBCHEM_ATOM_DEF_STEREO_COUNT>
0

> <PUBCHEM_ATOM_UDEF_STEREO_COUNT>
0

> <PUBCHEM_BOND_DEF_STEREO_COUNT>
0

> <PUBCHEM_BOND_UDEF_STEREO_COUNT>
0

> <PUBCHEM_ISOTOPIC_ATOM_COUNT>
0

> <PUBCHEM_COMPONENT_COUNT>
1

> <PUBCHEM_CACTVS_TAUTO_COUNT>
1

> <PUBCHEM_CONFORMER_ID>
0002F0F800000001

> <PUBCHEM_MMFF94_ENERGY>
97.3227

> <PUBCHEM_FEATURE_SELFOVERLAP>
35.57

> <PUBCHEM_SHAPE_FINGERPRINT>
10411042 1 17689716364007523798
10688039 33 17540824222931136059
10693767 8 18059292033238599999
10906281 52 18270420372004725624
10967382 1 18340216249724176546
11135609 187 18341331179704810017
11370993 70 18409729586006947204
12011746 2 18411709781417246628
12236239 1 17846219926007703625
12293681 160 18060139855597755827
12403259 415 18335434494444246843
12403260 363 18268711615392901730
12730499 353 18334863792702525875
12769317 202 18339912745406731853
12788726 201 17131554925964571017
12838862 33 18339909494628321776
12969540 114 18335689568256703549
13140716 1 18267587000018767322
13402501 40 18333448742385594525
14117953 113 18408606972541897196
14681490 219 18342453708605682837
14787075 74 17989491844072758944
14790565 3 18411421700322470145
16728300 4 17317295356583595946
16945 1 18269014062779288642
18608769 82 18337111285139013843
20028762 73 18130505211215872614
20157964 124 18412263921875843903
20511986 3 17845926339123446345
20554085 129 17916851517989247194
20715895 44 18408602569567116548
20775438 99 17181331869794678397
21033648 29 18338791346372700784
21279426 13 18412550916001873526
21521721 280 18341054094616913233
21859007 373 18115852063055582884
22182313 1 18265639712558751906
22393880 68 18272923956107885927
23402539 116 18271523186335329700
23559900 14 18200317757624115200
25147074 1 17773886289989545211
266924 1 17916874495805863105
266924 87 18267022760858271401
2748010 2 18194709126866735026
335352 9 18410859854876913542
34934 24 18261671579910646058
350125 39 18336826382361130204
38695281 34 18343019991279470967
4072396 5 18334002879187034586
4340502 62 18410294722304561175
474 4 18412266124993918562
495365 180 17703218629126046376
5283173 99 18339920540492467965
59755656 215 18410580557126621702
70251023 43 17984993587268952183

> <PUBCHEM_SHAPE_MULTIPOLES>
482.82
12.22
3.37
0.92
13.21
2.17
0.13
-7.97
-3
-1.7
0.06
0.41
-0.13
0.72

> <PUBCHEM_SHAPE_SELFOVERLAP>
1021.483

> <PUBCHEM_SHAPE_VOLUME>
269.9

> <PUBCHEM_COORDINATE_TYPE>
2
5
10

$$$$
