lig
 OpenBabel04112506133D

 49 52  0  0  1  0  0  0  0  0999 V2000
    3.2844   -1.9103   -0.7138 S   0  0  0  0  0  0  0  0  0  0  0  0
   -1.3945    0.0428    0.8737 N   0  0  0  0  0  0  0  0  0  0  0  0
    1.3548    0.4585   -0.1868 N   0  0  0  0  0  0  0  0  0  0  0  0
   -5.5606    0.8645   -0.1473 N   0  0  0  0  0  0  0  0  0  0  0  0
   -0.7885    1.1989    1.5216 C   0  0  0  0  0  0  0  0  0  0  0  0
   -0.3015    2.1881    0.4755 C   0  0  0  0  0  0  0  0  0  0  0  0
    0.4334    1.5025   -0.6717 C   0  0  0  0  0  0  0  0  0  0  0  0
    0.7796   -0.8341    0.0208 C   0  0  0  0  0  0  0  0  0  0  0  0
   -0.5772   -1.0158    0.4588 C   0  0  0  0  0  0  0  0  0  0  0  0
   -2.8455   -0.0735    0.9039 C   0  0  0  0  0  0  0  0  0  0  0  0
   -3.3995   -0.2952   -0.5030 C   0  0  0  0  0  0  0  0  0  0  0  0
    2.7356    0.7715   -0.1633 C   0  0  0  0  0  0  0  0  0  0  0  0
    1.5719   -1.9846   -0.2221 C   0  0  0  0  0  0  0  0  0  0  0  0
   -1.0850   -2.3352    0.5156 C   0  0  0  0  0  0  0  0  0  0  0  0
   -4.9273   -0.3747   -0.5815 C   0  0  0  0  0  0  0  0  0  0  0  0
    3.7105   -0.2260   -0.3393 C   0  0  0  0  0  0  0  0  0  0  0  0
    1.0260   -3.2719   -0.1257 C   0  0  0  0  0  0  0  0  0  0  0  0
   -0.3009   -3.4452    0.2248 C   0  0  0  0  0  0  0  0  0  0  0  0
    3.1971    2.0840    0.0742 C   0  0  0  0  0  0  0  0  0  0  0  0
    5.0803    0.0882   -0.2884 C   0  0  0  0  0  0  0  0  0  0  0  0
    4.5591    2.3920    0.1276 C   0  0  0  0  0  0  0  0  0  0  0  0
    5.5024    1.3924   -0.0535 C   0  0  0  0  0  0  0  0  0  0  0  0
   -7.0148    0.7795   -0.2941 C   0  0  0  0  0  0  0  0  0  0  0  0
   -5.0398    2.0034   -0.9059 C   0  0  0  0  0  0  0  0  0  0  0  0
    0.0356    0.8860    2.1767 H   0  0  0  0  0  0  0  0  0  0  0  0
   -1.5006    1.7046    2.1854 H   0  0  0  0  0  0  0  0  0  0  0  0
    0.3406    2.9284    0.9647 H   0  0  0  0  0  0  0  0  0  0  0  0
   -1.1528    2.7418    0.0602 H   0  0  0  0  0  0  0  0  0  0  0  0
   -0.2930    1.0612   -1.3695 H   0  0  0  0  0  0  0  0  0  0  0  0
    0.9450    2.2558   -1.2848 H   0  0  0  0  0  0  0  0  0  0  0  0
   -3.1703   -0.8600    1.5948 H   0  0  0  0  0  0  0  0  0  0  0  0
   -3.2773    0.8514    1.3041 H   0  0  0  0  0  0  0  0  0  0  0  0
   -3.0296   -1.2449   -0.9064 H   0  0  0  0  0  0  0  0  0  0  0  0
   -2.9983    0.4563   -1.1938 H   0  0  0  0  0  0  0  0  0  0  0  0
   -2.1013   -2.5422    0.8407 H   0  0  0  0  0  0  0  0  0  0  0  0
   -5.2118   -0.6207   -1.6133 H   0  0  0  0  0  0  0  0  0  0  0  0
   -5.2665   -1.2043    0.0514 H   0  0  0  0  0  0  0  0  0  0  0  0
    1.6280   -4.1549   -0.3303 H   0  0  0  0  0  0  0  0  0  0  0  0
   -0.7214   -4.4438    0.2967 H   0  0  0  0  0  0  0  0  0  0  0  0
    2.5026    2.9021    0.2439 H   0  0  0  0  0  0  0  0  0  0  0  0
    5.8348   -0.6818   -0.4369 H   0  0  0  0  0  0  0  0  0  0  0  0
    4.8768    3.4134    0.3159 H   0  0  0  0  0  0  0  0  0  0  0  0
    6.5620    1.6253   -0.0144 H   0  0  0  0  0  0  0  0  0  0  0  0
   -7.4947    1.6858    0.0916 H   0  0  0  0  0  0  0  0  0  0  0  0
   -7.3186    0.6452   -1.3386 H   0  0  0  0  0  0  0  0  0  0  0  0
   -7.4117   -0.0574    0.2914 H   0  0  0  0  0  0  0  0  0  0  0  0
   -5.0926    1.8439   -1.9892 H   0  0  0  0  0  0  0  0  0  0  0  0
   -4.0111    2.2507   -0.6266 H   0  0  0  0  0  0  0  0  0  0  0  0
   -5.6171    2.9076   -0.6763 H   0  0  0  0  0  0  0  0  0  0  0  0
  1 13  1  0  0  0  0
  1 16  1  0  0  0  0
  2  5  1  0  0  0  0
  2  9  1  0  0  0  0
  2 10  1  0  0  0  0
  3  7  1  0  0  0  0
  3  8  1  0  0  0  0
  3 12  1  0  0  0  0
  4 15  1  0  0  0  0
  4 23  1  0  0  0  0
  4 24  1  0  0  0  0
  5  6  1  0  0  0  0
  5 25  1  0  0  0  0
  5 26  1  0  0  0  0
  6  7  1  0  0  0  0
  6 27  1  0  0  0  0
  6 28  1  0  0  0  0
  7 29  1  0  0  0  0
  7 30  1  0  0  0  0
  8  9  2  0  0  0  0
  8 13  1  0  0  0  0
  9 14  1  0  0  0  0
 10 11  1  0  0  0  0
 10 31  1  0  0  0  0
 10 32  1  0  0  0  0
 11 15  1  0  0  0  0
 11 33  1  0  0  0  0
 11 34  1  0  0  0  0
 12 16  1  0  0  0  0
 12 19  2  0  0  0  0
 13 17  2  0  0  0  0
 14 18  2  0  0  0  0
 14 35  1  0  0  0  0
 15 36  1  0  0  0  0
 15 37  1  0  0  0  0
 16 20  2  0  0  0  0
 17 18  1  0  0  0  0
 17 38  1  0  0  0  0
 18 39  1  0  0  0  0
 19 21  1  0  0  0  0
 19 40  1  0  0  0  0
 20 22  1  0  0  0  0
 20 41  1  0  0  0  0
 21 22  2  0  0  0  0
 21 42  1  0  0  0  0
 22 43  1  0  0  0  0
 23 44  1  0  0  0  0
 23 45  1  0  0  0  0
 23 46  1  0  0  0  0
 24 47  1  0  0  0  0
 24 48  1  0  0  0  0
 24 49  1  0  0  0  0
M  END
