129723484
  Mrv15b2304152517253D          

 43 45  0  0  1  0            999 V2000
    0.4822    1.9172   -0.7425 S   0  0  0  0  0  0  0  0  0  0  0  0
   -2.6222   -3.0741    1.2289 N   0  0  1  0  0  0  0  0  0  0  0  0
    0.3901   -0.8567    0.5372 N   0  0  2  0  0  0  0  0  0  0  0  0
   -1.7413   -2.0919    1.8588 C   0  0  1  0  0  0  0  0  0  0  0  0
   -1.8951   -0.8021    1.1923 C   0  0  0  0  0  0  0  0  0  0  0  0
   -0.7826   -0.1680    0.5573 C   0  0  0  0  0  0  0  0  0  0  0  0
   -2.2695   -3.2102   -0.1833 C   0  0  1  0  0  0  0  0  0  0  0  0
   -2.4682   -4.3657    1.8964 C   0  0  2  0  0  0  0  0  0  0  0  0
   -2.1104   -1.9495    3.3367 C   0  0  0  0  0  0  0  0  0  0  0  0
   -0.9294    1.1202   -0.0501 C   0  0  0  0  0  0  0  0  0  0  0  0
   -3.1577   -0.1435    1.1582 C   0  0  0  0  0  0  0  0  0  0  0  0
    1.6049   -0.4805    0.0456 C   0  0  0  0  0  0  0  0  0  0  0  0
   -3.1914   -4.2380   -0.8425 C   0  0  0  0  0  0  0  0  0  0  0  0
   -1.0160   -4.8320    1.7761 C   0  0  0  0  0  0  0  0  0  0  0  0
   -2.2028    1.7666   -0.1122 C   0  0  0  0  0  0  0  0  0  0  0  0
   -3.3139    1.1132    0.5000 C   0  0  0  0  0  0  0  0  0  0  0  0
    1.8209    0.7842   -0.5982 C   0  0  0  0  0  0  0  0  0  0  0  0
    2.6744   -1.4059    0.1800 C   0  0  0  0  0  0  0  0  0  0  0  0
    3.0707    1.1140   -1.1901 C   0  0  0  0  0  0  0  0  0  0  0  0
    3.9553   -1.0537   -0.3462 C   0  0  0  0  0  0  0  0  0  0  0  0
    4.1491    0.1871   -1.0519 C   0  0  0  0  0  0  0  0  0  0  0  0
   -0.7066   -2.4241    1.7731 H   0  0  0  0  0  0  0  0  0  0  0  0
   -2.3843   -2.2472   -0.6810 H   0  0  0  0  0  0  0  0  0  0  0  0
   -1.2349   -3.5424   -0.2690 H   0  0  0  0  0  0  0  0  0  0  0  0
   -3.1250   -5.0979    1.4268 H   0  0  0  0  0  0  0  0  0  0  0  0
   -2.7312   -4.2642    2.9493 H   0  0  0  0  0  0  0  0  0  0  0  0
   -1.4536   -1.2172    3.8063 H   0  0  0  0  0  0  0  0  0  0  0  0
   -3.1450   -1.6173    3.4225 H   0  0  0  0  0  0  0  0  0  0  0  0
   -1.9956   -2.9124    3.8344 H   0  0  0  0  0  0  0  0  0  0  0  0
   -3.9625   -0.5766    1.6111 H   0  0  0  0  0  0  0  0  0  0  0  0
    0.2179   -1.7815    0.3007 H   0  0  0  0  0  0  0  0  0  0  0  0
   -2.9284   -4.3395   -1.8954 H   0  0  0  0  0  0  0  0  0  0  0  0
   -4.2260   -3.9058   -0.7568 H   0  0  0  0  0  0  0  0  0  0  0  0
   -3.0766   -5.2010   -0.3449 H   0  0  0  0  0  0  0  0  0  0  0  0
   -0.9011   -5.7949    2.2737 H   0  0  0  0  0  0  0  0  0  0  0  0
   -0.7530   -4.9334    0.7231 H   0  0  0  0  0  0  0  0  0  0  0  0
   -0.3592   -4.0997    2.2457 H   0  0  0  0  0  0  0  0  0  0  0  0
   -2.3138    2.6665   -0.5794 H   0  0  0  0  0  0  0  0  0  0  0  0
   -4.2344    1.5513    0.4667 H   0  0  0  0  0  0  0  0  0  0  0  0
    2.5308   -2.3036    0.6427 H   0  0  0  0  0  0  0  0  0  0  0  0
    3.1941    1.9888   -1.6999 H   0  0  0  0  0  0  0  0  0  0  0  0
    4.7430   -1.6894   -0.2204 H   0  0  0  0  0  0  0  0  0  0  0  0
    5.0605    0.4050   -1.4547 H   0  0  0  0  0  0  0  0  0  0  0  0
  1 10  1  0  0  0  0
  1 17  1  0  0  0  0
  2  4  1  0  0  0  0
  2  7  1  0  0  0  0
  2  8  1  0  0  0  0
  3  6  1  0  0  0  0
  3 12  1  0  0  0  0
  3 31  1  0  0  0  0
  4  5  1  0  0  0  0
  4  9  1  0  0  0  0
  4 22  1  0  0  0  0
  5  6  2  0  0  0  0
  5 11  1  0  0  0  0
  6 10  1  0  0  0  0
  7 13  1  0  0  0  0
  7 23  1  0  0  0  0
  7 24  1  0  0  0  0
  8 14  1  0  0  0  0
  8 25  1  0  0  0  0
  8 26  1  0  0  0  0
  9 27  1  0  0  0  0
  9 28  1  0  0  0  0
  9 29  1  0  0  0  0
 10 15  2  0  0  0  0
 11 16  2  0  0  0  0
 11 30  1  0  0  0  0
 12 17  1  0  0  0  0
 12 18  2  0  0  0  0
 13 32  1  0  0  0  0
 13 33  1  0  0  0  0
 13 34  1  0  0  0  0
 14 35  1  0  0  0  0
 14 36  1  0  0  0  0
 14 37  1  0  0  0  0
 15 16  1  0  0  0  0
 15 38  1  0  0  0  0
 16 39  1  0  0  0  0
 17 19  2  0  0  0  0
 18 20  1  0  0  0  0
 18 40  1  0  0  0  0
 19 21  1  0  0  0  0
 19 41  1  0  0  0  0
 20 21  2  0  0  0  0
 20 42  1  0  0  0  0
 21 43  1  0  0  0  0
M  END
