@<TRIPOS>MOLECULE
lig
 43 45 0 0 0
SMALL
GASTEIGER

@<TRIPOS>ATOM
      1 S           0.4822    1.9172   -0.7425 S.3     1  UNL11      -0.0857
      2 N          -2.6222   -3.0741    1.2289 N.3     1  UNL11      -0.2961
      3 N           0.3901   -0.8567    0.5372 N.pl3   1  UNL11      -0.3125
      4 C          -1.7413   -2.0919    1.8588 C.3     1  UNL11       0.0346
      5 C          -1.8951   -0.8021    1.1923 C.ar    1  UNL11      -0.0083
      6 C          -0.7826   -0.1680    0.5573 C.ar    1  UNL11       0.0500
      7 C          -2.2695   -3.2102   -0.1833 C.3     1  UNL11      -0.0034
      8 C          -2.4682   -4.3657    1.8964 C.3     1  UNL11      -0.0034
      9 C          -2.1104   -1.9495    3.3367 C.3     1  UNL11      -0.0453
     10 C          -0.9294    1.1202   -0.0501 C.ar    1  UNL11       0.0342
     11 C          -3.1577   -0.1435    1.1582 C.ar    1  UNL11      -0.0553
     12 C           1.6049   -0.4805    0.0456 C.ar    1  UNL11       0.0453
     13 C          -3.1914   -4.2380   -0.8425 C.3     1  UNL11      -0.0523
     14 C          -1.0160   -4.8320    1.7761 C.3     1  UNL11      -0.0523
     15 C          -2.2028    1.7666   -0.1122 C.ar    1  UNL11      -0.0462
     16 C          -3.3139    1.1132    0.5000 C.ar    1  UNL11      -0.0603
     17 C           1.8209    0.7842   -0.5982 C.ar    1  UNL11       0.0339
     18 C           2.6744   -1.4059    0.1800 C.ar    1  UNL11      -0.0395
     19 C           3.0707    1.1140   -1.1901 C.ar    1  UNL11      -0.0462
     20 C           3.9553   -1.0537   -0.3462 C.ar    1  UNL11      -0.0599
     21 C           4.1491    0.1871   -1.0519 C.ar    1  UNL11      -0.0606
     22 H          -0.7066   -2.4241    1.7731 H       1  UNL11       0.0510
     23 H          -2.3843   -2.2472   -0.6810 H       1  UNL11       0.0424
     24 H          -1.2349   -3.5424   -0.2690 H       1  UNL11       0.0424
     25 H          -3.1250   -5.0979    1.4268 H       1  UNL11       0.0424
     26 H          -2.7312   -4.2642    2.9493 H       1  UNL11       0.0424
     27 H          -1.4536   -1.2172    3.8063 H       1  UNL11       0.0248
     28 H          -3.1450   -1.6173    3.4225 H       1  UNL11       0.0248
     29 H          -1.9956   -2.9124    3.8344 H       1  UNL11       0.0248
     30 H          -3.9625   -0.5766    1.6111 H       1  UNL11       0.0621
     31 H           0.2179   -1.7815    0.3007 H       1  UNL11       0.1522
     32 H          -2.9284   -4.3395   -1.8954 H       1  UNL11       0.0242
     33 H          -4.2260   -3.9058   -0.7568 H       1  UNL11       0.0242
     34 H          -3.0766   -5.2010   -0.3449 H       1  UNL11       0.0242
     35 H          -0.9011   -5.7949    2.2737 H       1  UNL11       0.0242
     36 H          -0.7530   -4.9334    0.7231 H       1  UNL11       0.0242
     37 H          -0.3592   -4.0997    2.2457 H       1  UNL11       0.0242
     38 H          -2.3138    2.6665   -0.5794 H       1  UNL11       0.0629
     39 H          -4.2344    1.5513    0.4667 H       1  UNL11       0.0618
     40 H           2.5308   -2.3036    0.6427 H       1  UNL11       0.0636
     41 H           3.1941    1.9888   -1.6999 H       1  UNL11       0.0629
     42 H           4.7430   -1.6894   -0.2204 H       1  UNL11       0.0618
     43 H           5.0605    0.4050   -1.4547 H       1  UNL11       0.0618
@<TRIPOS>BOND
     1     1    10    1
     2     1    17    1
     3     2     4    1
     4     2     7    1
     5     2     8    1
     6     3     6    1
     7     3    12    1
     8     3    31    1
     9     4     5    1
    10     4     9    1
    11     4    22    1
    12     5     6   ar
    13     5    11   ar
    14     6    10   ar
    15     7    13    1
    16     7    23    1
    17     7    24    1
    18     8    14    1
    19     8    25    1
    20     8    26    1
    21     9    27    1
    22     9    28    1
    23     9    29    1
    24    10    15   ar
    25    11    16   ar
    26    11    30    1
    27    12    17   ar
    28    12    18   ar
    29    13    32    1
    30    13    33    1
    31    13    34    1
    32    14    35    1
    33    14    36    1
    34    14    37    1
    35    15    16   ar
    36    15    38    1
    37    16    39    1
    38    17    19   ar
    39    18    20   ar
    40    18    40    1
    41    19    21   ar
    42    19    41    1
    43    20    21   ar
    44    20    42    1
    45    21    43    1
