129723484
  -OEChem-04152517243D

 43 45  0     1  0  0  0  0  0999 V2000
    2.5257    1.9725    0.4651 S   0  0  0  0  0  0  0  0  0  0  0  0
   -2.2366   -1.1409    0.1893 N   0  0  0  0  0  0  0  0  0  0  0  0
    0.6006   -0.3433   -0.3697 N   0  0  0  0  0  0  0  0  0  0  0  0
   -2.2208   -0.0877   -0.8395 C   0  0  1  0  0  0  0  0  0  0  0  0
   -1.3613    1.0734   -0.4454 C   0  0  0  0  0  0  0  0  0  0  0  0
    0.0176    0.9245   -0.2184 C   0  0  0  0  0  0  0  0  0  0  0  0
   -3.0852   -2.2476   -0.2394 C   0  0  0  0  0  0  0  0  0  0  0  0
   -2.6999   -0.5935    1.4599 C   0  0  0  0  0  0  0  0  0  0  0  0
   -1.7922   -0.7044   -2.1808 C   0  0  0  0  0  0  0  0  0  0  0  0
    0.7702    2.0499    0.1523 C   0  0  0  0  0  0  0  0  0  0  0  0
   -1.9817    2.3146   -0.3082 C   0  0  0  0  0  0  0  0  0  0  0  0
    1.9489   -0.6904   -0.1916 C   0  0  0  0  0  0  0  0  0  0  0  0
   -4.5245   -1.7970   -0.4226 C   0  0  0  0  0  0  0  0  0  0  0  0
   -2.6782   -1.6487    2.5528 C   0  0  0  0  0  0  0  0  0  0  0  0
    0.1376    3.2955    0.2884 C   0  0  0  0  0  0  0  0  0  0  0  0
   -1.2317    3.4260    0.0589 C   0  0  0  0  0  0  0  0  0  0  0  0
    2.9174    0.2543    0.1828 C   0  0  0  0  0  0  0  0  0  0  0  0
    2.3431   -2.0241   -0.3941 C   0  0  0  0  0  0  0  0  0  0  0  0
    4.2525   -0.1462    0.3469 C   0  0  0  0  0  0  0  0  0  0  0  0
    3.6719   -2.4134   -0.2286 C   0  0  0  0  0  0  0  0  0  0  0  0
    4.6267   -1.4736    0.1419 C   0  0  0  0  0  0  0  0  0  0  0  0
   -3.2286    0.3149   -0.9952 H   0  0  0  0  0  0  0  0  0  0  0  0
   -2.7198   -2.7272   -1.1537 H   0  0  0  0  0  0  0  0  0  0  0  0
   -3.0504   -3.0701    0.4840 H   0  0  0  0  0  0  0  0  0  0  0  0
   -2.0026    0.1767    1.8106 H   0  0  0  0  0  0  0  0  0  0  0  0
   -3.6784   -0.1027    1.4148 H   0  0  0  0  0  0  0  0  0  0  0  0
   -0.9864   -1.4416   -2.1195 H   0  0  0  0  0  0  0  0  0  0  0  0
   -1.4543    0.0777   -2.8725 H   0  0  0  0  0  0  0  0  0  0  0  0
   -2.6363   -1.1945   -2.6804 H   0  0  0  0  0  0  0  0  0  0  0  0
   -3.0475    2.4381   -0.4802 H   0  0  0  0  0  0  0  0  0  0  0  0
   -0.0254   -1.1334   -0.4435 H   0  0  0  0  0  0  0  0  0  0  0  0
   -4.6733   -1.0859   -1.2386 H   0  0  0  0  0  0  0  0  0  0  0  0
   -5.1200   -2.6770   -0.6985 H   0  0  0  0  0  0  0  0  0  0  0  0
   -4.9926   -1.4085    0.4851 H   0  0  0  0  0  0  0  0  0  0  0  0
   -2.7857   -1.1657    3.5309 H   0  0  0  0  0  0  0  0  0  0  0  0
   -1.7314   -2.1998    2.5667 H   0  0  0  0  0  0  0  0  0  0  0  0
   -3.5035   -2.3617    2.4653 H   0  0  0  0  0  0  0  0  0  0  0  0
    0.7028    4.1799    0.5750 H   0  0  0  0  0  0  0  0  0  0  0  0
   -1.7106    4.3946    0.1677 H   0  0  0  0  0  0  0  0  0  0  0  0
    1.6095   -2.7731   -0.6853 H   0  0  0  0  0  0  0  0  0  0  0  0
    5.0182    0.5705    0.6365 H   0  0  0  0  0  0  0  0  0  0  0  0
    3.9592   -3.4482   -0.3893 H   0  0  0  0  0  0  0  0  0  0  0  0
    5.6628   -1.7723    0.2718 H   0  0  0  0  0  0  0  0  0  0  0  0
  1 10  1  0  0  0  0
  1 17  1  0  0  0  0
  2  4  1  0  0  0  0
  2  7  1  0  0  0  0
  2  8  1  0  0  0  0
  3  6  1  0  0  0  0
  3 12  1  0  0  0  0
  3 31  1  0  0  0  0
  4  5  1  0  0  0  0
  4  9  1  0  0  0  0
  4 22  1  0  0  0  0
  5  6  2  0  0  0  0
  5 11  1  0  0  0  0
  6 10  1  0  0  0  0
  7 13  1  0  0  0  0
  7 23  1  0  0  0  0
  7 24  1  0  0  0  0
  8 14  1  0  0  0  0
  8 25  1  0  0  0  0
  8 26  1  0  0  0  0
  9 27  1  0  0  0  0
  9 28  1  0  0  0  0
  9 29  1  0  0  0  0
 10 15  2  0  0  0  0
 11 16  2  0  0  0  0
 11 30  1  0  0  0  0
 12 17  1  0  0  0  0
 12 18  2  0  0  0  0
 13 32  1  0  0  0  0
 13 33  1  0  0  0  0
 13 34  1  0  0  0  0
 14 35  1  0  0  0  0
 14 36  1  0  0  0  0
 14 37  1  0  0  0  0
 15 16  1  0  0  0  0
 15 38  1  0  0  0  0
 16 39  1  0  0  0  0
 17 19  2  0  0  0  0
 18 20  1  0  0  0  0
 18 40  1  0  0  0  0
 19 21  1  0  0  0  0
 19 41  1  0  0  0  0
 20 21  2  0  0  0  0
 20 42  1  0  0  0  0
 21 43  1  0  0  0  0
M  END
> <PUBCHEM_COMPOUND_CID>
129723484

> <PUBCHEM_CONFORMER_RMSD>
0.6

> <PUBCHEM_CONFORMER_DIVERSEORDER>
3
13
8
10
6
9
4
1
2
11
5
14
12
7

> <PUBCHEM_MMFF94_PARTIAL_CHARGES>
26
1 -0.2
10 0.1
11 -0.15
12 0.1
15 -0.15
16 -0.15
17 0.1
18 -0.15
19 -0.15
2 -0.81
20 -0.15
21 -0.15
3 -0.6
30 0.15
31 0.4
38 0.15
39 0.15
4 0.41
40 0.15
41 0.15
42 0.15
43 0.15
5 -0.14
6 0.1
7 0.27
8 0.27

> <PUBCHEM_EFFECTIVE_ROTOR_COUNT>
4.4

> <PUBCHEM_PHARMACOPHORE_FEATURES>
6
1 2 cation
1 3 cation
1 3 donor
6 1 3 6 10 12 17 rings
6 12 17 18 19 20 21 rings
6 5 6 10 11 15 16 rings

> <PUBCHEM_HEAVY_ATOM_COUNT>
21

> <PUBCHEM_ATOM_DEF_STEREO_COUNT>
0

> <PUBCHEM_ATOM_UDEF_STEREO_COUNT>
1

> <PUBCHEM_BOND_DEF_STEREO_COUNT>
0

> <PUBCHEM_BOND_UDEF_STEREO_COUNT>
0

> <PUBCHEM_ISOTOPIC_ATOM_COUNT>
0

> <PUBCHEM_COMPONENT_COUNT>
1

> <PUBCHEM_CACTVS_TAUTO_COUNT>
7

> <PUBCHEM_CONFORMER_ID>
07BB6C5C00000003

> <PUBCHEM_MMFF94_ENERGY>
70.6895

> <PUBCHEM_FEATURE_SELFOVERLAP>
30.478

> <PUBCHEM_SHAPE_FINGERPRINT>
10165383 225 10447381997693872106
10366900 7 18334299798787390394
10616163 171 18269833108658010982
10967382 1 18124025999624998092
1100329 8 16967165619023523819
11578080 2 17130113564593510329
12363563 72 18408886256278015311
12506688 2 18337112375042120962
12553582 1 18266759011068861246
12596599 1 17845109521731591695
12788726 201 18190454974422929185
13004483 165 18342446050446606183
13140716 1 18343297033654837624
13544653 18 18334017228261423934
138480 1 15241730484065534117
13911987 19 17686337972733672716
13965767 371 17342140084232671849
14223421 5 18412820266465157848
14787075 74 18115870874879846654
14790565 3 17689721186918122212
14844126 61 18194667190711118330
15042514 8 18268430127162127845
15422964 175 18338227284032967468
15475509 84 17989220234915801585
16945 1 18124304163008168548
17357779 13 18261668255104987351
17492 89 18339637829230574518
17980427 23 17418105321458137977
18927931 339 18339080372640376174
19591789 44 17328308455514805508
19930381 70 18410285956371872451
20101258 96 18411427172363986880
20600515 1 16083596297163562005
20645476 183 17754458945512788660
20645477 70 17974558397571895471
21041028 32 18413106186379670133
221490 88 18341611465724126358
23526113 38 18042394915004939609
23558518 356 18262237712350691000
23559900 14 18339626872568392744
23728640 28 17980751641328117587
2748010 2 18341596140774886388
3421961 26 18267864080705811755
3759504 43 17680433238799381133
5104073 3 18199455581615125050
5309563 4 18339359781041634543
54173680 148 18268145362314301956
6443956 14 18337105791078886917
81228 2 18260833648596915425
8809292 202 18265332794437937544
9709674 26 18055349129080736182

> <PUBCHEM_SHAPE_MULTIPOLES>
426.06
7.51
3.72
1.37
3.55
2.57
0.43
-6.39
0.65
-0.5
0.23
-1.61
-0.74
0.69

> <PUBCHEM_SHAPE_SELFOVERLAP>
898.038

> <PUBCHEM_SHAPE_VOLUME>
240.4

> <PUBCHEM_COORDINATE_TYPE>
2
5
10

$$$$
