129723484
  Mrv15b2304152517252D          

 43 45  0  0  1  0            999 V2000
   -1.5045   -2.1756    0.0000 S   0  0  0  0  0  0  0  0  0  0  0  0
    0.6389    0.7119    0.0000 N   0  0  0  0  0  0  0  0  0  0  0  0
   -1.5045   -0.5256    0.0000 N   0  0  0  0  0  0  0  0  0  0  0  0
   -0.0756    0.2994    0.0000 C   0  0  1  0  0  0  0  0  0  0  0  0
   -0.0756   -0.5256    0.0000 C   0  0  0  0  0  0  0  0  0  0  0  0
   -0.7900   -0.9381    0.0000 C   0  0  0  0  0  0  0  0  0  0  0  0
    0.6389    1.5369    0.0000 C   0  0  0  0  0  0  0  0  0  0  0  0
    1.3534    0.2994    0.0000 C   0  0  0  0  0  0  0  0  0  0  0  0
   -0.7900    0.7119    0.0000 C   0  0  0  0  0  0  0  0  0  0  0  0
   -0.7900   -1.7631    0.0000 C   0  0  0  0  0  0  0  0  0  0  0  0
    0.6389   -0.9381    0.0000 C   0  0  0  0  0  0  0  0  0  0  0  0
   -2.2190   -0.9381    0.0000 C   0  0  0  0  0  0  0  0  0  0  0  0
    1.3534    1.9494    0.0000 C   0  0  0  0  0  0  0  0  0  0  0  0
    2.0678    0.7119    0.0000 C   0  0  0  0  0  0  0  0  0  0  0  0
   -0.0756   -2.1756    0.0000 C   0  0  0  0  0  0  0  0  0  0  0  0
    0.6389   -1.7631    0.0000 C   0  0  0  0  0  0  0  0  0  0  0  0
   -2.2190   -1.7631    0.0000 C   0  0  0  0  0  0  0  0  0  0  0  0
   -2.9335   -0.5256    0.0000 C   0  0  0  0  0  0  0  0  0  0  0  0
   -2.9335   -2.1756    0.0000 C   0  0  0  0  0  0  0  0  0  0  0  0
   -3.6479   -0.9381    0.0000 C   0  0  0  0  0  0  0  0  0  0  0  0
   -3.6479   -1.7631    0.0000 C   0  0  0  0  0  0  0  0  0  0  0  0
    0.6389   -0.1131    0.0000 H   0  0  0  0  0  0  0  0  0  0  0  0
    0.1856    2.2262    0.0000 H   0  0  0  0  0  0  0  0  0  0  0  0
   -0.1847    1.5849    0.0000 H   0  0  0  0  0  0  0  0  0  0  0  0
    1.4966   -0.5130    0.0000 H   0  0  0  0  0  0  0  0  0  0  0  0
    1.9854   -0.2309    0.0000 H   0  0  0  0  0  0  0  0  0  0  0  0
   -0.0756    1.1244    0.0000 H   0  0  0  0  0  0  0  0  0  0  0  0
   -0.7900    1.5369    0.0000 H   0  0  0  0  0  0  0  0  0  0  0  0
   -1.5045    1.1244    0.0000 H   0  0  0  0  0  0  0  0  0  0  0  0
   -0.0756   -1.3506    0.0000 H   0  0  0  0  0  0  0  0  0  0  0  0
   -1.5045    0.2994    0.0000 H   0  0  0  0  0  0  0  0  0  0  0  0
    1.7659    1.2349    0.0000 H   0  0  0  0  0  0  0  0  0  0  0  0
    2.0678    2.3619    0.0000 H   0  0  0  0  0  0  0  0  0  0  0  0
    0.9409    2.6639    0.0000 H   0  0  0  0  0  0  0  0  0  0  0  0
    2.6881    0.1680    0.0000 H   0  0  0  0  0  0  0  0  0  0  0  0
    2.8733    0.8905    0.0000 H   0  0  0  0  0  0  0  0  0  0  0  0
    2.4001    1.4671    0.0000 H   0  0  0  0  0  0  0  0  0  0  0  0
   -0.0756   -3.0006    0.0000 H   0  0  0  0  0  0  0  0  0  0  0  0
    1.3534   -2.1756    0.0000 H   0  0  0  0  0  0  0  0  0  0  0  0
   -2.9335    0.2994    0.0000 H   0  0  0  0  0  0  0  0  0  0  0  0
   -2.9335   -3.0006    0.0000 H   0  0  0  0  0  0  0  0  0  0  0  0
   -4.3624   -0.5256    0.0000 H   0  0  0  0  0  0  0  0  0  0  0  0
   -4.3624   -2.1756    0.0000 H   0  0  0  0  0  0  0  0  0  0  0  0
  1 10  1  0  0  0  0
  1 17  1  0  0  0  0
  2  4  1  0  0  0  0
  2  7  1  0  0  0  0
  2  8  1  0  0  0  0
  3  6  1  0  0  0  0
  3 12  1  0  0  0  0
  3 31  1  0  0  0  0
  4  5  1  0  0  0  0
  4  9  1  6  0  0  0
  4 22  1  6  0  0  0
  5  6  2  0  0  0  0
  5 11  1  0  0  0  0
  6 10  1  0  0  0  0
  7 13  1  0  0  0  0
  7 23  1  0  0  0  0
  7 24  1  0  0  0  0
  8 14  1  0  0  0  0
  8 25  1  0  0  0  0
  8 26  1  0  0  0  0
  9 27  1  0  0  0  0
  9 28  1  0  0  0  0
  9 29  1  0  0  0  0
 10 15  2  0  0  0  0
 11 16  2  3  0  0  0
 11 30  1  0  0  0  0
 12 17  1  0  0  0  0
 12 18  2  0  0  0  0
 13 32  1  0  0  0  0
 13 33  1  0  0  0  0
 13 34  1  0  0  0  0
 14 35  1  0  0  0  0
 14 36  1  0  0  0  0
 14 37  1  0  0  0  0
 15 16  1  0  0  0  0
 15 38  1  0  0  0  0
 16 39  1  0  0  0  0
 17 19  2  0  0  0  0
 18 20  1  0  0  0  0
 18 40  1  0  0  0  0
 19 21  1  0  0  0  0
 19 41  1  0  0  0  0
 20 21  2  0  0  0  0
 20 42  1  0  0  0  0
 21 43  1  0  0  0  0
M  END
