lig
 OpenBabel04152517253D

 43 45  0  0  1  0  0  0  0  0999 V2000
    2.5257    1.9725    0.4651 S   0  0  0  0  0  0  0  0  0  0  0  0
   -2.2366   -1.1409    0.1893 N   0  0  0  0  0  0  0  0  0  0  0  0
    0.6006   -0.3433   -0.3697 N   0  0  0  0  0  0  0  0  0  0  0  0
   -2.2208   -0.0877   -0.8395 C   0  0  1  0  0  0  0  0  0  0  0  0
   -1.3613    1.0734   -0.4454 C   0  0  0  0  0  0  0  0  0  0  0  0
    0.0176    0.9245   -0.2184 C   0  0  0  0  0  0  0  0  0  0  0  0
   -3.0852   -2.2476   -0.2394 C   0  0  0  0  0  0  0  0  0  0  0  0
   -2.6999   -0.5935    1.4599 C   0  0  0  0  0  0  0  0  0  0  0  0
   -1.7922   -0.7044   -2.1808 C   0  0  0  0  0  0  0  0  0  0  0  0
    0.7702    2.0499    0.1523 C   0  0  0  0  0  0  0  0  0  0  0  0
   -1.9817    2.3146   -0.3082 C   0  0  0  0  0  0  0  0  0  0  0  0
    1.9489   -0.6904   -0.1916 C   0  0  0  0  0  0  0  0  0  0  0  0
   -4.5245   -1.7970   -0.4226 C   0  0  0  0  0  0  0  0  0  0  0  0
   -2.6782   -1.6487    2.5528 C   0  0  0  0  0  0  0  0  0  0  0  0
    0.1376    3.2955    0.2884 C   0  0  0  0  0  0  0  0  0  0  0  0
   -1.2317    3.4260    0.0589 C   0  0  0  0  0  0  0  0  0  0  0  0
    2.9174    0.2543    0.1828 C   0  0  0  0  0  0  0  0  0  0  0  0
    2.3431   -2.0241   -0.3941 C   0  0  0  0  0  0  0  0  0  0  0  0
    4.2525   -0.1462    0.3469 C   0  0  0  0  0  0  0  0  0  0  0  0
    3.6719   -2.4134   -0.2286 C   0  0  0  0  0  0  0  0  0  0  0  0
    4.6267   -1.4736    0.1419 C   0  0  0  0  0  0  0  0  0  0  0  0
   -3.2286    0.3149   -0.9952 H   0  0  0  0  0  0  0  0  0  0  0  0
   -2.7198   -2.7272   -1.1537 H   0  0  0  0  0  0  0  0  0  0  0  0
   -3.0504   -3.0701    0.4840 H   0  0  0  0  0  0  0  0  0  0  0  0
   -2.0026    0.1767    1.8106 H   0  0  0  0  0  0  0  0  0  0  0  0
   -3.6784   -0.1027    1.4148 H   0  0  0  0  0  0  0  0  0  0  0  0
   -0.9864   -1.4416   -2.1195 H   0  0  0  0  0  0  0  0  0  0  0  0
   -1.4543    0.0777   -2.8725 H   0  0  0  0  0  0  0  0  0  0  0  0
   -2.6363   -1.1945   -2.6804 H   0  0  0  0  0  0  0  0  0  0  0  0
   -3.0475    2.4381   -0.4802 H   0  0  0  0  0  0  0  0  0  0  0  0
   -0.0254   -1.1334   -0.4435 H   0  0  0  0  0  0  0  0  0  0  0  0
   -4.6733   -1.0859   -1.2386 H   0  0  0  0  0  0  0  0  0  0  0  0
   -5.1200   -2.6770   -0.6985 H   0  0  0  0  0  0  0  0  0  0  0  0
   -4.9926   -1.4085    0.4851 H   0  0  0  0  0  0  0  0  0  0  0  0
   -2.7857   -1.1657    3.5309 H   0  0  0  0  0  0  0  0  0  0  0  0
   -1.7314   -2.1998    2.5667 H   0  0  0  0  0  0  0  0  0  0  0  0
   -3.5035   -2.3617    2.4653 H   0  0  0  0  0  0  0  0  0  0  0  0
    0.7028    4.1799    0.5750 H   0  0  0  0  0  0  0  0  0  0  0  0
   -1.7106    4.3946    0.1677 H   0  0  0  0  0  0  0  0  0  0  0  0
    1.6095   -2.7731   -0.6853 H   0  0  0  0  0  0  0  0  0  0  0  0
    5.0182    0.5705    0.6365 H   0  0  0  0  0  0  0  0  0  0  0  0
    3.9592   -3.4482   -0.3893 H   0  0  0  0  0  0  0  0  0  0  0  0
    5.6628   -1.7723    0.2718 H   0  0  0  0  0  0  0  0  0  0  0  0
  1 10  1  0  0  0  0
  1 17  1  0  0  0  0
  2  4  1  0  0  0  0
  2  7  1  0  0  0  0
  2  8  1  0  0  0  0
  3  6  1  0  0  0  0
  3 12  1  0  0  0  0
  3 31  1  0  0  0  0
  4  5  1  0  0  0  0
  4  9  1  0  0  0  0
  4 22  1  6  0  0  0
  5  6  2  0  0  0  0
  5 11  1  0  0  0  0
  6 10  1  0  0  0  0
  7 13  1  0  0  0  0
  7 23  1  0  0  0  0
  7 24  1  0  0  0  0
  8 14  1  0  0  0  0
  8 25  1  0  0  0  0
  8 26  1  0  0  0  0
  9 27  1  0  0  0  0
  9 28  1  0  0  0  0
  9 29  1  0  0  0  0
 10 15  2  0  0  0  0
 11 16  2  0  0  0  0
 11 30  1  0  0  0  0
 12 17  1  0  0  0  0
 12 18  2  0  0  0  0
 13 32  1  0  0  0  0
 13 33  1  0  0  0  0
 13 34  1  0  0  0  0
 14 35  1  0  0  0  0
 14 36  1  0  0  0  0
 14 37  1  0  0  0  0
 15 16  1  0  0  0  0
 15 38  1  0  0  0  0
 16 39  1  0  0  0  0
 17 19  2  0  0  0  0
 18 20  1  0  0  0  0
 18 40  1  0  0  0  0
 19 21  1  0  0  0  0
 19 41  1  0  0  0  0
 20 21  2  0  0  0  0
 20 42  1  0  0  0  0
 21 43  1  0  0  0  0
M  END
