139346692
  -OEChem-04112506343D

 54 57  0     0  0  0  0  0  0999 V2000
   -3.3673    2.3282    0.0858 S   0  0  0  0  0  0  0  0  0  0  0  0
   -4.3815   -3.9650    0.3362 F   0  0  0  0  0  0  0  0  0  0  0  0
   -5.2717   -2.5719    1.7486 F   0  0  0  0  0  0  0  0  0  0  0  0
   -5.8806   -2.5391   -0.3327 F   0  0  0  0  0  0  0  0  0  0  0  0
    3.8764   -0.9109   -0.3605 N   0  0  0  0  0  0  0  0  0  0  0  0
    6.5793   -1.2982    0.5896 N   0  0  0  0  0  0  0  0  0  0  0  0
   -0.6247    1.1085   -0.7244 N   0  0  0  0  0  0  0  0  0  0  0  0
   -0.2159   -1.7792   -0.9635 N   0  0  0  0  0  0  0  0  0  0  0  0
    4.8029   -1.8189   -1.0477 C   0  0  0  0  0  0  0  0  0  0  0  0
    4.6158    0.1732    0.2977 C   0  0  0  0  0  0  0  0  0  0  0  0
    2.8884   -0.3733   -1.2938 C   0  0  0  0  0  0  0  0  0  0  0  0
    5.8407   -2.3817   -0.0705 C   0  0  0  0  0  0  0  0  0  0  0  0
    5.6526   -0.3897    1.2759 C   0  0  0  0  0  0  0  0  0  0  0  0
    1.6205    0.0996   -0.5760 C   0  0  0  0  0  0  0  0  0  0  0  0
    0.5257    0.6293   -1.5016 C   0  0  0  0  0  0  0  0  0  0  0  0
    7.5658   -1.8367    1.5241 C   0  0  0  0  0  0  0  0  0  0  0  0
   -1.6516    0.1747   -0.4351 C   0  0  0  0  0  0  0  0  0  0  0  0
   -0.5903    2.4503   -0.2676 C   0  0  0  0  0  0  0  0  0  0  0  0
   -2.9322    0.6046   -0.0343 C   0  0  0  0  0  0  0  0  0  0  0  0
   -1.7655    3.1058    0.1500 C   0  0  0  0  0  0  0  0  0  0  0  0
   -1.4346   -1.2192   -0.4985 C   0  0  0  0  0  0  0  0  0  0  0  0
    0.6165    3.1781   -0.1755 C   0  0  0  0  0  0  0  0  0  0  0  0
   -3.9452   -0.3259    0.2579 C   0  0  0  0  0  0  0  0  0  0  0  0
   -2.4436   -2.1397   -0.2024 C   0  0  0  0  0  0  0  0  0  0  0  0
   -3.7013   -1.6926    0.1728 C   0  0  0  0  0  0  0  0  0  0  0  0
   -1.7244    4.4345    0.6090 C   0  0  0  0  0  0  0  0  0  0  0  0
    0.6522    4.4969    0.2860 C   0  0  0  0  0  0  0  0  0  0  0  0
   -0.5199    5.1268    0.6755 C   0  0  0  0  0  0  0  0  0  0  0  0
   -4.7866   -2.6686    0.4751 C   0  0  0  0  0  0  0  0  0  0  0  0
    5.3121   -1.3053   -1.8746 H   0  0  0  0  0  0  0  0  0  0  0  0
    4.2490   -2.6624   -1.4776 H   0  0  0  0  0  0  0  0  0  0  0  0
    5.1194    0.8110   -0.4416 H   0  0  0  0  0  0  0  0  0  0  0  0
    3.9386    0.8146    0.8718 H   0  0  0  0  0  0  0  0  0  0  0  0
    3.3082    0.4314   -1.9112 H   0  0  0  0  0  0  0  0  0  0  0  0
    2.5752   -1.1632   -1.9893 H   0  0  0  0  0  0  0  0  0  0  0  0
    5.3414   -3.0225    0.6691 H   0  0  0  0  0  0  0  0  0  0  0  0
    6.5367   -3.0150   -0.6338 H   0  0  0  0  0  0  0  0  0  0  0  0
    6.2102    0.4500    1.7084 H   0  0  0  0  0  0  0  0  0  0  0  0
    5.1408   -0.9022    2.1018 H   0  0  0  0  0  0  0  0  0  0  0  0
    1.2956   -0.6619    0.1371 H   0  0  0  0  0  0  0  0  0  0  0  0
    1.9191    0.8985    0.1077 H   0  0  0  0  0  0  0  0  0  0  0  0
    0.2425   -0.0324   -2.3257 H   0  0  0  0  0  0  0  0  0  0  0  0
    0.9482    1.4634   -2.0814 H   0  0  0  0  0  0  0  0  0  0  0  0
    8.1453   -1.0264    1.9802 H   0  0  0  0  0  0  0  0  0  0  0  0
    8.2822   -2.4782    0.9991 H   0  0  0  0  0  0  0  0  0  0  0  0
    7.1016   -2.4223    2.3258 H   0  0  0  0  0  0  0  0  0  0  0  0
    1.5737    2.7788   -0.4895 H   0  0  0  0  0  0  0  0  0  0  0  0
   -4.9361    0.0156    0.5534 H   0  0  0  0  0  0  0  0  0  0  0  0
   -2.2424   -3.2055   -0.2851 H   0  0  0  0  0  0  0  0  0  0  0  0
   -2.6334    4.9454    0.9202 H   0  0  0  0  0  0  0  0  0  0  0  0
    1.5975    5.0301    0.3313 H   0  0  0  0  0  0  0  0  0  0  0  0
   -0.4982    6.1524    1.0309 H   0  0  0  0  0  0  0  0  0  0  0  0
    0.0731   -2.6246   -0.4792 H   0  0  0  0  0  0  0  0  0  0  0  0
   -0.1679   -1.8889   -1.9724 H   0  0  0  0  0  0  0  0  0  0  0  0
  1 19  1  0  0  0  0
  1 20  1  0  0  0  0
  2 29  1  0  0  0  0
  3 29  1  0  0  0  0
  4 29  1  0  0  0  0
  5  9  1  0  0  0  0
  5 10  1  0  0  0  0
  5 11  1  0  0  0  0
  6 12  1  0  0  0  0
  6 13  1  0  0  0  0
  6 16  1  0  0  0  0
  7 15  1  0  0  0  0
  7 17  1  0  0  0  0
  7 18  1  0  0  0  0
  8 21  1  0  0  0  0
  8 53  1  0  0  0  0
  8 54  1  0  0  0  0
  9 12  1  0  0  0  0
  9 30  1  0  0  0  0
  9 31  1  0  0  0  0
 10 13  1  0  0  0  0
 10 32  1  0  0  0  0
 10 33  1  0  0  0  0
 11 14  1  0  0  0  0
 11 34  1  0  0  0  0
 11 35  1  0  0  0  0
 12 36  1  0  0  0  0
 12 37  1  0  0  0  0
 13 38  1  0  0  0  0
 13 39  1  0  0  0  0
 14 15  1  0  0  0  0
 14 40  1  0  0  0  0
 14 41  1  0  0  0  0
 15 42  1  0  0  0  0
 15 43  1  0  0  0  0
 16 44  1  0  0  0  0
 16 45  1  0  0  0  0
 16 46  1  0  0  0  0
 17 19  1  0  0  0  0
 17 21  2  0  0  0  0
 18 20  1  0  0  0  0
 18 22  2  0  0  0  0
 19 23  2  0  0  0  0
 20 26  2  0  0  0  0
 21 24  1  0  0  0  0
 22 27  1  0  0  0  0
 22 47  1  0  0  0  0
 23 25  1  0  0  0  0
 23 48  1  0  0  0  0
 24 25  2  0  0  0  0
 24 49  1  0  0  0  0
 25 29  1  0  0  0  0
 26 28  1  0  0  0  0
 26 50  1  0  0  0  0
 27 28  2  0  0  0  0
 27 51  1  0  0  0  0
 28 52  1  0  0  0  0
M  END
> <PUBCHEM_COMPOUND_CID>
139346692

> <PUBCHEM_CONFORMER_RMSD>
0.8

> <PUBCHEM_CONFORMER_DIVERSEORDER>
3
11
12
14
8
10
6
2
5
4
7
9
13
1

> <PUBCHEM_MMFF94_PARTIAL_CHARGES>
36
1 -0.2
10 0.27
11 0.27
12 0.27
13 0.27
15 0.37
16 0.27
17 0.1
18 0.1
19 0.1
2 -0.34
20 0.1
21 0.1
22 -0.15
23 -0.15
24 -0.15
25 -0.14
26 -0.15
27 -0.15
28 -0.15
29 1.16
3 -0.34
4 -0.34
47 0.15
48 0.15
49 0.15
5 -0.81
50 0.15
51 0.15
52 0.15
53 0.4
54 0.4
6 -0.81
7 -0.57
8 -0.9
9 0.27

> <PUBCHEM_EFFECTIVE_ROTOR_COUNT>
6.6

> <PUBCHEM_PHARMACOPHORE_FEATURES>
9
1 5 cation
1 6 cation
1 7 cation
1 8 cation
1 8 donor
6 1 7 17 18 19 20 rings
6 17 19 21 23 24 25 rings
6 18 20 22 26 27 28 rings
6 5 6 9 10 12 13 rings

> <PUBCHEM_HEAVY_ATOM_COUNT>
29

> <PUBCHEM_ATOM_DEF_STEREO_COUNT>
0

> <PUBCHEM_ATOM_UDEF_STEREO_COUNT>
0

> <PUBCHEM_BOND_DEF_STEREO_COUNT>
0

> <PUBCHEM_BOND_UDEF_STEREO_COUNT>
0

> <PUBCHEM_ISOTOPIC_ATOM_COUNT>
0

> <PUBCHEM_COMPONENT_COUNT>
1

> <PUBCHEM_CACTVS_TAUTO_COUNT>
-1

> <PUBCHEM_CONFORMER_ID>
084E430400000003

> <PUBCHEM_MMFF94_ENERGY>
114.8609

> <PUBCHEM_FEATURE_SELFOVERLAP>
45.707

> <PUBCHEM_SHAPE_FINGERPRINT>
10074138 170 18196943171158960137
10319926 262 18125996063165637550
10411042 1 18411984701968200711
1100329 8 18339654360644164109
11399510 152 18198322015382024626
11456790 92 18261971717174587627
11963148 33 17761490696134934190
12293681 160 17908119020495985117
12596602 18 17967810544820973522
12788726 201 18335719247008382350
12925494 130 17764586526173789450
13140716 1 18341624724003904133
138480 1 15239488584531228965
14178342 30 18265336097663271662
14844126 61 18409449146412903843
14955137 171 18337952410574069115
15042514 8 18410860923579990989
15876981 60 18334016068630732548
16992752 21 18338530702936253060
17780758 139 18335413514130009332
20642791 105 18260268521538037773
21033648 29 16845025536665164639
21639891 77 18334849511778336069
21796203 349 17976012995273235411
22122407 14 15841544129151433152
22956985 138 18120933064525929816
23522609 53 17680455285921040308
23559900 14 18266733770305458051
23845131 108 17619071629209465873
32027 91 18192710275231650227
3383291 50 18338802191924479353
3418910 222 18409168823522123936
3886686 26 17688870835491914106
392239 28 18410017611178309672
4073 2 18196088842857091422
4409770 3 18189330170239603909
469060 322 18341067236815613866
50009960 94 17756405407796933962
5104073 3 18413669111095914528
6004065 56 18267860777808117183
79837 15 17979927007538700912
9896288 288 18268426824727961698
9981440 41 17688602558701830185

> <PUBCHEM_SHAPE_MULTIPOLES>
558.91
14.2
6.12
1.14
26.17
6.31
0.07
-17.14
5.91
-8.34
1.62
0.89
-0.35
0.45

> <PUBCHEM_SHAPE_SELFOVERLAP>
1187.187

> <PUBCHEM_SHAPE_VOLUME>
315.6

> <PUBCHEM_COORDINATE_TYPE>
2
5
10

$$$$
