56209827
  -OEChem-04152517442D

 54 57  0     1  0  0  0  0  0999 V2000
    2.9380   -6.5352    0.0000 S   0  0  0  0  0  0  0  0  0  0  0  0
    3.8611    3.0526    0.0000 O   0  0  0  0  0  0  0  0  0  0  0  0
    2.9380   -4.5352    0.0000 N   0  0  0  0  0  0  0  0  0  0  0  0
    3.8041    0.9648    0.0000 N   0  0  0  0  0  0  0  0  0  0  0  0
    5.4791    3.0526    0.0000 N   0  0  0  0  0  0  0  0  0  0  0  0
    5.1701    4.0036    0.0000 N   0  0  0  0  0  0  0  0  0  0  0  0
    2.9380   -3.5352    0.0000 C   0  0  0  0  0  0  0  0  0  0  0  0
    3.8041   -5.0352    0.0000 C   0  0  0  0  0  0  0  0  0  0  0  0
    2.0720   -5.0352    0.0000 C   0  0  0  0  0  0  0  0  0  0  0  0
    3.8041   -3.0352    0.0000 C   0  0  0  0  0  0  0  0  0  0  0  0
    3.8041   -6.0352    0.0000 C   0  0  0  0  0  0  0  0  0  0  0  0
    2.0720   -6.0352    0.0000 C   0  0  0  0  0  0  0  0  0  0  0  0
    3.8041   -2.0352    0.0000 C   0  0  0  0  0  0  0  0  0  0  0  0
    4.6701   -1.5352    0.0000 C   0  0  0  0  0  0  0  0  0  0  0  0
    2.9380   -1.5352    0.0000 C   0  0  0  0  0  0  0  0  0  0  0  0
    3.8041   -0.0352    0.0000 C   0  0  0  0  0  0  0  0  0  0  0  0
    4.6701    1.4648    0.0000 C   0  0  3  0  0  0  0  0  0  0  0  0
    4.6701   -0.5352    0.0000 C   0  0  0  0  0  0  0  0  0  0  0  0
    2.9380   -0.5352    0.0000 C   0  0  0  0  0  0  0  0  0  0  0  0
    4.6701    2.4648    0.0000 C   0  0  0  0  0  0  0  0  0  0  0  0
    5.5361    0.9648    0.0000 C   0  0  0  0  0  0  0  0  0  0  0  0
    4.1701    4.0036    0.0000 C   0  0  0  0  0  0  0  0  0  0  0  0
    3.5823    4.8126    0.0000 C   0  0  0  0  0  0  0  0  0  0  0  0
    2.5878    4.7081    0.0000 C   0  0  0  0  0  0  0  0  0  0  0  0
    3.9890    5.7262    0.0000 C   0  0  0  0  0  0  0  0  0  0  0  0
    2.0000    5.5171    0.0000 C   0  0  0  0  0  0  0  0  0  0  0  0
    3.4013    6.5352    0.0000 C   0  0  0  0  0  0  0  0  0  0  0  0
    2.4067    6.4307    0.0000 C   0  0  0  0  0  0  0  0  0  0  0  0
    2.7260   -2.9526    0.0000 H   0  0  0  0  0  0  0  0  0  0  0  0
    2.3275   -3.6429    0.0000 H   0  0  0  0  0  0  0  0  0  0  0  0
    4.4146   -5.1429    0.0000 H   0  0  0  0  0  0  0  0  0  0  0  0
    4.0161   -4.4526    0.0000 H   0  0  0  0  0  0  0  0  0  0  0  0
    1.8600   -4.4526    0.0000 H   0  0  0  0  0  0  0  0  0  0  0  0
    1.4614   -5.1429    0.0000 H   0  0  0  0  0  0  0  0  0  0  0  0
    4.0161   -3.6178    0.0000 H   0  0  0  0  0  0  0  0  0  0  0  0
    4.4146   -2.9276    0.0000 H   0  0  0  0  0  0  0  0  0  0  0  0
    4.0161   -6.6178    0.0000 H   0  0  0  0  0  0  0  0  0  0  0  0
    4.4146   -5.9276    0.0000 H   0  0  0  0  0  0  0  0  0  0  0  0
    1.4614   -5.9276    0.0000 H   0  0  0  0  0  0  0  0  0  0  0  0
    1.8600   -6.6178    0.0000 H   0  0  0  0  0  0  0  0  0  0  0  0
    5.2070   -1.8452    0.0000 H   0  0  0  0  0  0  0  0  0  0  0  0
    2.4011   -1.8452    0.0000 H   0  0  0  0  0  0  0  0  0  0  0  0
    4.6701    0.8448    0.0000 H   0  0  0  0  0  0  0  0  0  0  0  0
    5.2070   -0.2252    0.0000 H   0  0  0  0  0  0  0  0  0  0  0  0
    2.4011   -0.2252    0.0000 H   0  0  0  0  0  0  0  0  0  0  0  0
    3.2671    1.2748    0.0000 H   0  0  0  0  0  0  0  0  0  0  0  0
    5.2261    0.4279    0.0000 H   0  0  0  0  0  0  0  0  0  0  0  0
    6.0730    0.6548    0.0000 H   0  0  0  0  0  0  0  0  0  0  0  0
    5.8461    1.5017    0.0000 H   0  0  0  0  0  0  0  0  0  0  0  0
    2.3356    4.1417    0.0000 H   0  0  0  0  0  0  0  0  0  0  0  0
    4.6056    5.7910    0.0000 H   0  0  0  0  0  0  0  0  0  0  0  0
    1.3834    5.4523    0.0000 H   0  0  0  0  0  0  0  0  0  0  0  0
    3.6534    7.1016    0.0000 H   0  0  0  0  0  0  0  0  0  0  0  0
    2.0423    6.9323    0.0000 H   0  0  0  0  0  0  0  0  0  0  0  0
  1 11  1  0  0  0  0
  1 12  1  0  0  0  0
  2 20  1  0  0  0  0
  2 22  1  0  0  0  0
  3  7  1  0  0  0  0
  3  8  1  0  0  0  0
  3  9  1  0  0  0  0
  4 16  1  0  0  0  0
  4 17  1  0  0  0  0
  4 46  1  0  0  0  0
  5  6  1  0  0  0  0
  5 20  2  0  0  0  0
  6 22  2  0  0  0  0
  7 10  1  0  0  0  0
  7 29  1  0  0  0  0
  7 30  1  0  0  0  0
  8 11  1  0  0  0  0
  8 31  1  0  0  0  0
  8 32  1  0  0  0  0
  9 12  1  0  0  0  0
  9 33  1  0  0  0  0
  9 34  1  0  0  0  0
 10 13  1  0  0  0  0
 10 35  1  0  0  0  0
 10 36  1  0  0  0  0
 11 37  1  0  0  0  0
 11 38  1  0  0  0  0
 12 39  1  0  0  0  0
 12 40  1  0  0  0  0
 13 14  2  0  0  0  0
 13 15  1  0  0  0  0
 14 18  1  0  0  0  0
 14 41  1  0  0  0  0
 15 19  2  0  0  0  0
 15 42  1  0  0  0  0
 16 18  2  0  0  0  0
 16 19  1  0  0  0  0
 17 20  1  0  0  0  0
 17 21  1  0  0  0  0
 17 43  1  0  0  0  0
 18 44  1  0  0  0  0
 19 45  1  0  0  0  0
 21 47  1  0  0  0  0
 21 48  1  0  0  0  0
 21 49  1  0  0  0  0
 22 23  1  0  0  0  0
 23 24  2  0  0  0  0
 23 25  1  0  0  0  0
 24 26  1  0  0  0  0
 24 50  1  0  0  0  0
 25 27  2  0  0  0  0
 25 51  1  0  0  0  0
 26 28  2  0  0  0  0
 26 52  1  0  0  0  0
 27 28  1  0  0  0  0
 27 53  1  0  0  0  0
 28 54  1  0  0  0  0
M  END
> <PUBCHEM_COMPOUND_CID>
56209827

> <PUBCHEM_COMPOUND_CANONICALIZED>
1

> <PUBCHEM_CACTVS_COMPLEXITY>
448

> <PUBCHEM_CACTVS_HBOND_ACCEPTOR>
6

> <PUBCHEM_CACTVS_HBOND_DONOR>
1

> <PUBCHEM_CACTVS_ROTATABLE_BOND>
7

> <PUBCHEM_CACTVS_SUBSKEYS>
AAADceB7oABAAAAAAAAAAAAAAAAAAWAAAAA8YIAAAAAAAAAB0AAAHgQYAAAADCjF2gSywIPABEiqAiVyUACSAAAtAhAaiKG4bNgKZrLAtbmfMQhk2AH46YeYyKCOCAAAAAAAAAAQAAAAAAAAAAAAAAAAAA==

> <PUBCHEM_IUPAC_OPENEYE_NAME>
N-[1-(5-phenyl-1,3,4-oxadiazol-2-yl)ethyl]-4-(2-thiomorpholinoethyl)aniline

> <PUBCHEM_IUPAC_CAS_NAME>
N-[1-(5-phenyl-1,3,4-oxadiazol-2-yl)ethyl]-4-(2-thiomorpholin-4-ylethyl)aniline

> <PUBCHEM_IUPAC_NAME_MARKUP>
<I>N</I>-[1-(5-phenyl-1,3,4-oxadiazol-2-yl)ethyl]-4-(2-thiomorpholin-4-ylethyl)aniline

> <PUBCHEM_IUPAC_NAME>
N-[1-(5-phenyl-1,3,4-oxadiazol-2-yl)ethyl]-4-(2-thiomorpholin-4-ylethyl)aniline

> <PUBCHEM_IUPAC_SYSTEMATIC_NAME>
N-[1-(5-phenyl-1,3,4-oxadiazol-2-yl)ethyl]-4-(2-thiomorpholin-4-ylethyl)aniline

> <PUBCHEM_IUPAC_TRADITIONAL_NAME>
1-(5-phenyl-1,3,4-oxadiazol-2-yl)ethyl-[4-(2-thiomorpholinoethyl)phenyl]amine

> <PUBCHEM_IUPAC_INCHI>
InChI=1S/C22H26N4OS/c1-17(21-24-25-22(27-21)19-5-3-2-4-6-19)23-20-9-7-18(8-10-20)11-12-26-13-15-28-16-14-26/h2-10,17,23H,11-16H2,1H3

> <PUBCHEM_IUPAC_INCHIKEY>
ZJSRMDJWYRLPSG-UHFFFAOYSA-N

> <PUBCHEM_XLOGP3_AA>
4

> <PUBCHEM_EXACT_MASS>
394.18273264

> <PUBCHEM_MOLECULAR_FORMULA>
C22H26N4OS

> <PUBCHEM_MOLECULAR_WEIGHT>
394.5

> <PUBCHEM_SMILES>
CC(C1=NN=C(O1)C2=CC=CC=C2)NC3=CC=C(C=C3)CCN4CCSCC4

> <PUBCHEM_OPENEYE_CAN_SMILES>
CC(C1=NN=C(O1)C2=CC=CC=C2)NC3=CC=C(C=C3)CCN4CCSCC4

> <PUBCHEM_OPENEYE_ISO_SMILES>
CC(C1=NN=C(O1)C2=CC=CC=C2)NC3=CC=C(C=C3)CCN4CCSCC4

> <PUBCHEM_CACTVS_TPSA>
79.5

> <PUBCHEM_MONOISOTOPIC_WEIGHT>
394.18273264

> <PUBCHEM_TOTAL_CHARGE>
0

> <PUBCHEM_HEAVY_ATOM_COUNT>
28

> <PUBCHEM_ATOM_DEF_STEREO_COUNT>
0

> <PUBCHEM_ATOM_UDEF_STEREO_COUNT>
1

> <PUBCHEM_BOND_DEF_STEREO_COUNT>
0

> <PUBCHEM_BOND_UDEF_STEREO_COUNT>
0

> <PUBCHEM_ISOTOPIC_ATOM_COUNT>
0

> <PUBCHEM_COMPONENT_COUNT>
1

> <PUBCHEM_CACTVS_TAUTO_COUNT>
-1

> <PUBCHEM_COORDINATE_TYPE>
1
5
255

> <PUBCHEM_BONDANNOTATIONS>
13  14  8
13  15  8
14  18  8
15  19  8
16  18  8
16  19  8
17  21  3
2  20  8
2  22  8
23  24  8
23  25  8
24  26  8
25  27  8
26  28  8
27  28  8
5  20  8
5  6  8
6  22  8

$$$$
