66839496
  -OEChem-04172506333D

 42 43  0     1  0  0  0  0  0999 V2000
    0.9524    2.9129    1.3095 S   0  0  0  0  0  0  0  0  0  0  0  0
    3.4506    1.5642   -0.0516 O   0  0  0  0  0  0  0  0  0  0  0  0
   -2.0889   -1.2131    2.2195 O   0  5  0  0  0  0  0  0  0  0  0  0
   -3.7466    0.2156    2.0468 O   0  0  0  0  0  0  0  0  0  0  0  0
    2.0410   -2.7725    0.1106 N   0  0  0  0  0  0  0  0  0  0  0  0
   -1.0829    1.4183    0.3750 N   0  0  0  0  0  0  0  0  0  0  0  0
   -1.5559    0.6103   -1.7740 N   0  0  0  0  0  0  0  0  0  0  0  0
   -2.8276   -0.4665    1.5341 N   0  3  0  0  0  0  0  0  0  0  0  0
   -2.2120   -0.2489   -2.5992 N   0  0  0  0  0  0  0  0  0  0  0  0
    2.3417   -0.3731   -0.3156 C   0  0  0  0  0  0  0  0  0  0  0  0
    1.3845   -1.4758   -0.1123 C   0  0  0  0  0  0  0  0  0  0  0  0
    2.4549    0.7760    0.4321 C   0  0  0  0  0  0  0  0  0  0  0  0
    1.7179    1.3042    1.6319 C   0  0  0  0  0  0  0  0  0  0  0  0
   -0.1555    2.4399   -0.0748 C   0  0  1  0  0  0  0  0  0  0  0  0
    3.3316   -0.2852   -1.3234 C   0  0  0  0  0  0  0  0  0  0  0  0
    3.9789    0.9113   -1.1197 C   0  0  0  0  0  0  0  0  0  0  0  0
   -0.9208    3.6837   -0.5164 C   0  0  0  0  0  0  0  0  0  0  0  0
    1.1091   -3.8618   -0.1646 C   0  0  0  0  0  0  0  0  0  0  0  0
    2.5430   -2.8538    1.4788 C   0  0  0  0  0  0  0  0  0  0  0  0
   -1.7625    0.5303   -0.4423 C   0  0  0  0  0  0  0  0  0  0  0  0
   -2.6161   -0.3908    0.1306 C   0  0  0  0  0  0  0  0  0  0  0  0
   -3.2836   -1.2650   -0.7091 C   0  0  0  0  0  0  0  0  0  0  0  0
   -3.0531   -1.1602   -2.0661 C   0  0  0  0  0  0  0  0  0  0  0  0
    0.6698   -1.2595    0.6907 H   0  0  0  0  0  0  0  0  0  0  0  0
    0.7845   -1.5284   -1.0322 H   0  0  0  0  0  0  0  0  0  0  0  0
    0.9631    0.5969    1.9860 H   0  0  0  0  0  0  0  0  0  0  0  0
    2.4348    1.4326    2.4501 H   0  0  0  0  0  0  0  0  0  0  0  0
    0.4613    2.0865   -0.9072 H   0  0  0  0  0  0  0  0  0  0  0  0
    3.5490   -1.0008   -2.1036 H   0  0  0  0  0  0  0  0  0  0  0  0
   -1.4325    1.5408    1.3193 H   0  0  0  0  0  0  0  0  0  0  0  0
    4.7919    1.4161   -1.6206 H   0  0  0  0  0  0  0  0  0  0  0  0
   -1.5576    4.0780    0.2846 H   0  0  0  0  0  0  0  0  0  0  0  0
   -1.5787    3.4545   -1.3622 H   0  0  0  0  0  0  0  0  0  0  0  0
   -0.2402    4.4785   -0.8417 H   0  0  0  0  0  0  0  0  0  0  0  0
    1.5957   -4.8323   -0.0152 H   0  0  0  0  0  0  0  0  0  0  0  0
    0.2213   -3.8200    0.4772 H   0  0  0  0  0  0  0  0  0  0  0  0
    0.7809   -3.8374   -1.2099 H   0  0  0  0  0  0  0  0  0  0  0  0
    1.7433   -2.7603    2.2230 H   0  0  0  0  0  0  0  0  0  0  0  0
    3.0476   -3.8128    1.6431 H   0  0  0  0  0  0  0  0  0  0  0  0
    3.2910   -2.0787    1.6774 H   0  0  0  0  0  0  0  0  0  0  0  0
   -3.9692   -2.0144   -0.3272 H   0  0  0  0  0  0  0  0  0  0  0  0
   -3.5448   -1.8155   -2.7755 H   0  0  0  0  0  0  0  0  0  0  0  0
  1 13  1  0  0  0  0
  1 14  1  0  0  0  0
  2 12  1  0  0  0  0
  2 16  1  0  0  0  0
  3  8  1  0  0  0  0
  4  8  2  0  0  0  0
  5 11  1  0  0  0  0
  5 18  1  0  0  0  0
  5 19  1  0  0  0  0
  6 14  1  0  0  0  0
  6 20  1  0  0  0  0
  6 30  1  0  0  0  0
  7  9  2  0  0  0  0
  7 20  1  0  0  0  0
  8 21  1  0  0  0  0
  9 23  1  0  0  0  0
 10 11  1  0  0  0  0
 10 12  2  0  0  0  0
 10 15  1  0  0  0  0
 11 24  1  0  0  0  0
 11 25  1  0  0  0  0
 12 13  1  0  0  0  0
 13 26  1  0  0  0  0
 13 27  1  0  0  0  0
 14 17  1  0  0  0  0
 14 28  1  0  0  0  0
 15 16  2  0  0  0  0
 15 29  1  0  0  0  0
 16 31  1  0  0  0  0
 17 32  1  0  0  0  0
 17 33  1  0  0  0  0
 17 34  1  0  0  0  0
 18 35  1  0  0  0  0
 18 36  1  0  0  0  0
 18 37  1  0  0  0  0
 19 38  1  0  0  0  0
 19 39  1  0  0  0  0
 19 40  1  0  0  0  0
 20 21  2  0  0  0  0
 21 22  1  0  0  0  0
 22 23  2  0  0  0  0
 22 41  1  0  0  0  0
 23 42  1  0  0  0  0
M  CHG  2   3  -1   8   1
M  END
> <PUBCHEM_COMPOUND_CID>
66839496

> <PUBCHEM_CONFORMER_RMSD>
1.2

> <PUBCHEM_CONFORMER_DIVERSEORDER>
1
31
58
95
60
81
104
94
77
102
48
88
75
45
10
18
5
107
106
36
49
6
47
25
38
84
19
11
57
46
97
100
17
82
59
109
101
43
78
52
7
9
53
98
37
93
108
69
13
64
51
67
39
44
30
103
26
23
12
71
63
24
91
22
34
87
86
15
56
42
74
41
79
40
80
8
66
89
72
105
14
27
85
70
21
20
68
16
33
61
90
92
54
2
65
32
110
76
99
50
96
73
4
35
55
3
29
62
28
83

> <PUBCHEM_MMFF94_PARTIAL_CHARGES>
27
1 -0.46
10 -0.18
11 0.45
12 -0.04
13 0.41
14 0.6
15 -0.15
16 -0.01
18 0.27
19 0.27
2 -0.28
20 0.41
21 0.13
22 -0.15
23 0.16
29 0.15
3 -0.52
30 0.4
31 0.15
4 -0.52
41 0.15
42 0.15
5 -0.81
6 -0.87
7 -0.31
8 0.91
9 -0.31

> <PUBCHEM_EFFECTIVE_ROTOR_COUNT>
8

> <PUBCHEM_PHARMACOPHORE_FEATURES>
9
1 2 acceptor
1 3 acceptor
1 3 anion
1 4 acceptor
1 5 cation
1 6 cation
1 6 donor
5 2 10 12 15 16 rings
6 7 9 20 21 22 23 rings

> <PUBCHEM_HEAVY_ATOM_COUNT>
23

> <PUBCHEM_ATOM_DEF_STEREO_COUNT>
0

> <PUBCHEM_ATOM_UDEF_STEREO_COUNT>
1

> <PUBCHEM_BOND_DEF_STEREO_COUNT>
0

> <PUBCHEM_BOND_UDEF_STEREO_COUNT>
0

> <PUBCHEM_ISOTOPIC_ATOM_COUNT>
0

> <PUBCHEM_COMPONENT_COUNT>
1

> <PUBCHEM_CACTVS_TAUTO_COUNT>
2

> <PUBCHEM_CONFORMER_ID>
03FBE3C800000001

> <PUBCHEM_MMFF94_ENERGY>
59.7416

> <PUBCHEM_FEATURE_SELFOVERLAP>
45.752

> <PUBCHEM_SHAPE_FINGERPRINT>
11370993 70 16009567170949077512
12553582 1 18413387622527302850
12596599 1 17560806566806791838
13149001 5 17907873047602248788
13583140 156 18270695267887650195
13911987 19 18116431642879417908
15209289 33 18130516339475382384
18219364 16 18191866936168010835
20691752 17 18269552904844186420
21731516 1 18130498656799560788
23557571 272 16153715327352217567
23598288 3 18053108328235041021
23598291 2 17917717855352262907
23728640 28 17263826006612418039
238 59 18264470931671727510
35225 105 17690862059290805893
70251023 43 18193829354424582207
81228 2 16895943649839137002

> <PUBCHEM_SHAPE_MULTIPOLES>
434.67
6.28
4.01
2.07
0.41
0.35
0.08
1.47
-0.9
-1.91
0.75
1.46
0.3
-0.49

> <PUBCHEM_SHAPE_SELFOVERLAP>
885.573

> <PUBCHEM_SHAPE_VOLUME>
256.6

> <PUBCHEM_COORDINATE_TYPE>
2
5
10

$$$$
