166796104
  Mrv15b2304112506323D          

 40 42  0  0  0  0            999 V2000
   -0.1933    0.5016   -1.7578 S   0  0  0  0  0  0  0  0  0  0  0  0
   -5.3595    0.7674    0.0150 F   0  0  0  0  0  0  0  0  0  0  0  0
   -4.9639    2.8927   -0.5673 F   0  0  0  0  0  0  0  0  0  0  0  0
   -5.2840    2.3625    1.5842 F   0  0  0  0  0  0  0  0  0  0  0  0
    0.9374    1.2262    0.9746 N   0  0  0  0  0  0  0  0  0  0  0  0
   -0.9310    1.5842    3.2789 N   0  0  1  0  0  0  0  0  0  0  0  0
    1.5814    2.3512    1.6470 C   0  0  2  0  0  0  0  0  0  0  0  0
   -0.4747    1.2180    0.9072 C   0  0  0  0  0  0  0  0  0  0  0  0
    1.9124    2.2685    3.1450 C   0  0  1  0  0  0  0  0  0  0  0  0
    1.7708    0.4183    0.1545 C   0  0  0  0  0  0  0  0  0  0  0  0
   -1.1174    1.0175   -0.3428 C   0  0  0  0  0  0  0  0  0  0  0  0
    1.3979    0.0575   -1.1690 C   0  0  0  0  0  0  0  0  0  0  0  0
   -1.3283    1.5508    1.9985 C   0  0  0  0  0  0  0  0  0  0  0  0
    2.5774    3.5716    3.5930 C   0  0  2  0  0  0  0  0  0  0  0  0
   -2.4972    1.2668   -0.5219 C   0  0  0  0  0  0  0  0  0  0  0  0
   -3.2941    1.7101    0.5545 C   0  0  0  0  0  0  0  0  0  0  0  0
    3.0904    0.0377    0.5382 C   0  0  0  0  0  0  0  0  0  0  0  0
   -2.6829    1.8845    1.8133 C   0  0  0  0  0  0  0  0  0  0  0  0
    2.3110   -0.5668   -2.0615 C   0  0  0  0  0  0  0  0  0  0  0  0
    2.9071    3.4893    5.0848 C   0  0  0  0  0  0  0  0  0  0  0  0
    4.0172   -0.5437   -0.3454 C   0  0  0  0  0  0  0  0  0  0  0  0
    3.6261   -0.8559   -1.6534 C   0  0  0  0  0  0  0  0  0  0  0  0
   -4.7535    1.9376    0.3935 C   0  0  1  0  0  0  0  0  0  0  0  0
    1.0185    3.2633    1.4491 H   0  0  0  0  0  0  0  0  0  0  0  0
    2.5675    2.4636    1.1964 H   0  0  0  0  0  0  0  0  0  0  0  0
    0.9942    2.1156    3.7121 H   0  0  0  0  0  0  0  0  0  0  0  0
    2.5917    1.4346    3.3216 H   0  0  0  0  0  0  0  0  0  0  0  0
    1.8981    4.4056    3.4165 H   0  0  0  0  0  0  0  0  0  0  0  0
    3.4956    3.7246    3.0259 H   0  0  0  0  0  0  0  0  0  0  0  0
   -2.9062    1.1185   -1.4534 H   0  0  0  0  0  0  0  0  0  0  0  0
    3.4291    0.2286    1.4762 H   0  0  0  0  0  0  0  0  0  0  0  0
   -3.2211    2.2682    2.6064 H   0  0  0  0  0  0  0  0  0  0  0  0
    2.0508   -0.7905   -3.0301 H   0  0  0  0  0  0  0  0  0  0  0  0
    3.3808    4.4177    5.4039 H   0  0  0  0  0  0  0  0  0  0  0  0
    1.9889    3.3364    5.6519 H   0  0  0  0  0  0  0  0  0  0  0  0
    3.5864    2.6554    5.2613 H   0  0  0  0  0  0  0  0  0  0  0  0
    4.9849   -0.7110   -0.0418 H   0  0  0  0  0  0  0  0  0  0  0  0
    4.3038   -1.2770   -2.3017 H   0  0  0  0  0  0  0  0  0  0  0  0
   -1.6792    1.8346    3.8432 H   0  0  0  0  0  0  0  0  0  0  0  0
   -0.6080    0.7077    3.5403 H   0  0  0  0  0  0  0  0  0  0  0  0
  1 11  1  0  0  0  0
  1 12  1  0  0  0  0
  2 23  1  0  0  0  0
  3 23  1  0  0  0  0
  4 23  1  0  0  0  0
  5  7  1  0  0  0  0
  5  8  1  0  0  0  0
  5 10  1  0  0  0  0
  6 13  1  0  0  0  0
  6 39  1  0  0  0  0
  6 40  1  0  0  0  0
  7  9  1  0  0  0  0
  7 24  1  0  0  0  0
  7 25  1  0  0  0  0
  8 11  1  0  0  0  0
  8 13  2  0  0  0  0
  9 14  1  0  0  0  0
  9 26  1  0  0  0  0
  9 27  1  0  0  0  0
 10 12  1  0  0  0  0
 10 17  2  0  0  0  0
 11 15  2  0  0  0  0
 12 19  2  0  0  0  0
 13 18  1  0  0  0  0
 14 20  1  0  0  0  0
 14 28  1  0  0  0  0
 14 29  1  0  0  0  0
 15 16  1  0  0  0  0
 15 30  1  0  0  0  0
 16 18  2  0  0  0  0
 16 23  1  0  0  0  0
 17 21  1  0  0  0  0
 17 31  1  0  0  0  0
 18 32  1  0  0  0  0
 19 22  1  0  0  0  0
 19 33  1  0  0  0  0
 20 34  1  0  0  0  0
 20 35  1  0  0  0  0
 20 36  1  0  0  0  0
 21 22  2  0  0  0  0
 21 37  1  0  0  0  0
 22 38  1  0  0  0  0
M  END
