@<TRIPOS>MOLECULE
lig
 40 42 0 0 0
SMALL
GASTEIGER

@<TRIPOS>ATOM
      1 S          -0.1933    0.5016   -1.7578 S.3     1  UNL11      -0.0857
      2 F          -5.3595    0.7674    0.0150 F       1  UNL11      -0.1659
      3 F          -4.9639    2.8927   -0.5673 F       1  UNL11      -0.1659
      4 F          -5.2840    2.3625    1.5842 F       1  UNL11      -0.1659
      5 N           0.9374    1.2262    0.9746 N.pl3   1  UNL11      -0.2969
      6 N          -0.9310    1.5842    3.2789 N.pl3   1  UNL11      -0.3565
      7 C           1.5814    2.3512    1.6470 C.3     1  UNL11       0.0174
      8 C          -0.4747    1.2180    0.9072 C.ar    1  UNL11       0.0688
      9 C           1.9124    2.2685    3.1450 C.3     1  UNL11      -0.0371
     10 C           1.7708    0.4183    0.1545 C.ar    1  UNL11       0.0479
     11 C          -1.1174    1.0175   -0.3428 C.ar    1  UNL11       0.0364
     12 C           1.3979    0.0575   -1.1690 C.ar    1  UNL11       0.0341
     13 C          -1.3283    1.5508    1.9985 C.ar    1  UNL11       0.0478
     14 C           2.5774    3.5716    3.5930 C.3     1  UNL11      -0.0545
     15 C          -2.4972    1.2668   -0.5219 C.ar    1  UNL11      -0.0344
     16 C          -3.2941    1.7101    0.5545 C.ar    1  UNL11       0.0577
     17 C           3.0904    0.0377    0.5382 C.ar    1  UNL11      -0.0393
     18 C          -2.6829    1.8845    1.8133 C.ar    1  UNL11      -0.0275
     19 C           2.3110   -0.5668   -2.0615 C.ar    1  UNL11      -0.0462
     20 C           2.9071    3.4893    5.0848 C.3     1  UNL11      -0.0652
     21 C           4.0172   -0.5437   -0.3454 C.ar    1  UNL11      -0.0599
     22 C           3.6261   -0.8559   -1.6534 C.ar    1  UNL11      -0.0606
     23 C          -4.7535    1.9376    0.3935 C.3     1  UNL11       0.4175
     24 H           1.0185    3.2633    1.4491 H       1  UNL11       0.0468
     25 H           2.5675    2.4636    1.1964 H       1  UNL11       0.0468
     26 H           0.9942    2.1156    3.7121 H       1  UNL11       0.0280
     27 H           2.5917    1.4346    3.3216 H       1  UNL11       0.0280
     28 H           1.8981    4.4056    3.4165 H       1  UNL11       0.0263
     29 H           3.4956    3.7246    3.0259 H       1  UNL11       0.0263
     30 H          -2.9062    1.1185   -1.4534 H       1  UNL11       0.0635
     31 H           3.4291    0.2286    1.4762 H       1  UNL11       0.0636
     32 H          -3.2211    2.2682    2.6064 H       1  UNL11       0.0642
     33 H           2.0508   -0.7905   -3.0301 H       1  UNL11       0.0629
     34 H           3.3808    4.4177    5.4039 H       1  UNL11       0.0230
     35 H           1.9889    3.3364    5.6519 H       1  UNL11       0.0230
     36 H           3.5864    2.6554    5.2613 H       1  UNL11       0.0230
     37 H           4.9849   -0.7110   -0.0418 H       1  UNL11       0.0618
     38 H           4.3038   -1.2770   -2.3017 H       1  UNL11       0.0618
     39 H          -1.6792    1.8346    3.8432 H       1  UNL11       0.1424
     40 H          -0.6080    0.7077    3.5403 H       1  UNL11       0.1424
@<TRIPOS>BOND
     1     1    11    1
     2     1    12    1
     3     2    23    1
     4     3    23    1
     5     4    23    1
     6     5     7    1
     7     5     8    1
     8     5    10    1
     9     6    13    1
    10     6    39    1
    11     6    40    1
    12     7     9    1
    13     7    24    1
    14     7    25    1
    15     8    11   ar
    16     8    13   ar
    17     9    14    1
    18     9    26    1
    19     9    27    1
    20    10    12   ar
    21    10    17   ar
    22    11    15   ar
    23    12    19   ar
    24    13    18   ar
    25    14    20    1
    26    14    28    1
    27    14    29    1
    28    15    16   ar
    29    15    30    1
    30    16    18   ar
    31    16    23    1
    32    17    21   ar
    33    17    31    1
    34    18    32    1
    35    19    22   ar
    36    19    33    1
    37    20    34    1
    38    20    35    1
    39    20    36    1
    40    21    22   ar
    41    21    37    1
    42    22    38    1
