166796104
  -OEChem-04112506313D

 40 42  0     0  0  0  0  0  0999 V2000
    0.4278    1.9562   -1.2181 S   0  0  0  0  0  0  0  0  0  0  0  0
   -5.2391   -0.4922    0.4418 F   0  0  0  0  0  0  0  0  0  0  0  0
   -4.8584    1.6358    0.2665 F   0  0  0  0  0  0  0  0  0  0  0  0
   -4.8141    0.3762   -1.5055 F   0  0  0  0  0  0  0  0  0  0  0  0
    1.1844   -0.4910    0.5437 N   0  0  0  0  0  0  0  0  0  0  0  0
   -0.8394   -2.1683    1.8282 N   0  0  0  0  0  0  0  0  0  0  0  0
    1.6068   -1.8248    0.9905 C   0  0  0  0  0  0  0  0  0  0  0  0
   -0.2042   -0.2755    0.3542 C   0  0  0  0  0  0  0  0  0  0  0  0
    2.5582   -2.4583   -0.0209 C   0  0  0  0  0  0  0  0  0  0  0  0
    2.1900    0.4983    0.4008 C   0  0  0  0  0  0  0  0  0  0  0  0
   -0.6727    0.8149   -0.4051 C   0  0  0  0  0  0  0  0  0  0  0  0
    1.9588    1.6649   -0.3547 C   0  0  0  0  0  0  0  0  0  0  0  0
   -1.1780   -1.1133    0.9406 C   0  0  0  0  0  0  0  0  0  0  0  0
    1.9395   -2.5830   -1.4155 C   0  0  0  0  0  0  0  0  0  0  0  0
   -2.0512    1.0289   -0.5831 C   0  0  0  0  0  0  0  0  0  0  0  0
   -2.9839    0.1770   -0.0011 C   0  0  0  0  0  0  0  0  0  0  0  0
    3.4483    0.3823    1.0313 C   0  0  0  0  0  0  0  0  0  0  0  0
   -2.5468   -0.8934    0.7643 C   0  0  0  0  0  0  0  0  0  0  0  0
    2.9573    2.6462   -0.4876 C   0  0  0  0  0  0  0  0  0  0  0  0
    2.9329   -3.1563   -2.4142 C   0  0  0  0  0  0  0  0  0  0  0  0
    4.4354    1.3629    0.8998 C   0  0  0  0  0  0  0  0  0  0  0  0
    4.1909    2.4942    0.1366 C   0  0  0  0  0  0  0  0  0  0  0  0
   -4.4423    0.4182   -0.1927 C   0  0  0  0  0  0  0  0  0  0  0  0
    2.0276   -1.8093    2.0022 H   0  0  0  0  0  0  0  0  0  0  0  0
    0.8692   -2.6152    0.9518 H   0  0  0  0  0  0  0  0  0  0  0  0
    2.8291   -3.4613    0.3362 H   0  0  0  0  0  0  0  0  0  0  0  0
    3.5051   -1.9173   -0.0997 H   0  0  0  0  0  0  0  0  0  0  0  0
    1.0541   -3.2281   -1.3758 H   0  0  0  0  0  0  0  0  0  0  0  0
    1.6133   -1.6068   -1.7893 H   0  0  0  0  0  0  0  0  0  0  0  0
   -2.4040    1.8680   -1.1808 H   0  0  0  0  0  0  0  0  0  0  0  0
    3.6915   -0.4617    1.6712 H   0  0  0  0  0  0  0  0  0  0  0  0
   -3.2682   -1.5527    1.2420 H   0  0  0  0  0  0  0  0  0  0  0  0
    2.7835    3.5420   -1.0804 H   0  0  0  0  0  0  0  0  0  0  0  0
    3.2694   -4.1511   -2.1055 H   0  0  0  0  0  0  0  0  0  0  0  0
    3.8111   -2.5098   -2.5098 H   0  0  0  0  0  0  0  0  0  0  0  0
    2.4687   -3.2460   -3.4014 H   0  0  0  0  0  0  0  0  0  0  0  0
    5.3908    1.2405    1.4017 H   0  0  0  0  0  0  0  0  0  0  0  0
    4.9545    3.2587    0.0307 H   0  0  0  0  0  0  0  0  0  0  0  0
   -1.5617   -2.8461    2.0442 H   0  0  0  0  0  0  0  0  0  0  0  0
   -0.2179   -1.9289    2.5936 H   0  0  0  0  0  0  0  0  0  0  0  0
  1 11  1  0  0  0  0
  1 12  1  0  0  0  0
  2 23  1  0  0  0  0
  3 23  1  0  0  0  0
  4 23  1  0  0  0  0
  5  7  1  0  0  0  0
  5  8  1  0  0  0  0
  5 10  1  0  0  0  0
  6 13  1  0  0  0  0
  6 39  1  0  0  0  0
  6 40  1  0  0  0  0
  7  9  1  0  0  0  0
  7 24  1  0  0  0  0
  7 25  1  0  0  0  0
  8 11  1  0  0  0  0
  8 13  2  0  0  0  0
  9 14  1  0  0  0  0
  9 26  1  0  0  0  0
  9 27  1  0  0  0  0
 10 12  1  0  0  0  0
 10 17  2  0  0  0  0
 11 15  2  0  0  0  0
 12 19  2  0  0  0  0
 13 18  1  0  0  0  0
 14 20  1  0  0  0  0
 14 28  1  0  0  0  0
 14 29  1  0  0  0  0
 15 16  1  0  0  0  0
 15 30  1  0  0  0  0
 16 18  2  0  0  0  0
 16 23  1  0  0  0  0
 17 21  1  0  0  0  0
 17 31  1  0  0  0  0
 18 32  1  0  0  0  0
 19 22  1  0  0  0  0
 19 33  1  0  0  0  0
 20 34  1  0  0  0  0
 20 35  1  0  0  0  0
 20 36  1  0  0  0  0
 21 22  2  0  0  0  0
 21 37  1  0  0  0  0
 22 38  1  0  0  0  0
M  END
> <PUBCHEM_COMPOUND_CID>
166796104

> <PUBCHEM_CONFORMER_RMSD>
0.8

> <PUBCHEM_CONFORMER_DIVERSEORDER>
2
1

> <PUBCHEM_MMFF94_PARTIAL_CHARGES>
28
1 -0.2
10 0.1
11 0.1
12 0.1
13 0.1
15 -0.15
16 -0.14
17 -0.15
18 -0.15
19 -0.15
2 -0.34
21 -0.15
22 -0.15
23 1.16
3 -0.34
30 0.15
31 0.15
32 0.15
33 0.15
37 0.15
38 0.15
39 0.4
4 -0.34
40 0.4
5 -0.57
6 -0.9
7 0.37
8 0.1

> <PUBCHEM_EFFECTIVE_ROTOR_COUNT>
4.4

> <PUBCHEM_PHARMACOPHORE_FEATURES>
7
1 20 hydrophobe
1 5 cation
1 6 cation
1 6 donor
6 1 5 8 10 11 12 rings
6 10 12 17 19 21 22 rings
6 8 11 13 15 16 18 rings

> <PUBCHEM_HEAVY_ATOM_COUNT>
23

> <PUBCHEM_ATOM_DEF_STEREO_COUNT>
0

> <PUBCHEM_ATOM_UDEF_STEREO_COUNT>
0

> <PUBCHEM_BOND_DEF_STEREO_COUNT>
0

> <PUBCHEM_BOND_UDEF_STEREO_COUNT>
0

> <PUBCHEM_ISOTOPIC_ATOM_COUNT>
0

> <PUBCHEM_COMPONENT_COUNT>
1

> <PUBCHEM_CACTVS_TAUTO_COUNT>
-1

> <PUBCHEM_CONFORMER_ID>
09F11B4800000002

> <PUBCHEM_MMFF94_ENERGY>
95.0459

> <PUBCHEM_FEATURE_SELFOVERLAP>
35.553

> <PUBCHEM_SHAPE_FINGERPRINT>
10906281 52 18260559939010896008
11680986 33 18260277351399908955
12011746 2 18187080646605058548
12236239 1 18272080600930727981
12403259 415 17822008671485119309
12592029 89 18059860596724001134
12633257 1 17677313013925552608
12788726 201 16970574122608428694
13140716 1 17970626513720995440
13380535 76 18260826050583107873
133893 2 17772782444597783894
13402501 40 18186796980889331664
13583140 156 17203032067772164913
14787075 74 18263920098448490545
14790565 3 17535196862617762212
15081414 286 18334862701354012981
15196674 1 18041274486427853449
15219462 58 17131845286601331075
15238133 3 14996558439847264037
15375358 24 18187361056034247657
15475509 8 17551812321569008837
15502722 9 18343867701379321894
15536298 74 18408603626392562177
15664445 248 18054234219505087230
15840311 113 18196384633060462201
15848702 151 18270399382757675263
1601671 61 18114462361724874268
17349148 13 18188197818985576337
17818456 19 17056969464072772465
17844677 252 18338239246265752433
17980427 23 17751636791522523852
1813 80 17057542326874269990
18186145 218 18187647943165577763
18915476 22 18200612361656628954
20645477 70 18342176648248366319
20691752 17 17605284981736195753
21033648 144 17971177364556488909
21033648 29 15575809837965281789
21120745 212 15804926835814168627
21197605 99 18118688961768419043
21344244 246 17917440809172793486
21452121 103 18261947470923651705
21860390 5 18409165497982398556
22182313 1 18116173184384545859
23419403 2 17906779965261199802
23559900 14 18408038503270358306
239999 70 18409448055322723547
2748010 2 18041012751437313875
3060560 45 18342458166844331844
335352 9 18114174259708071112
376196 1 18263915708448868064
394222 165 13683431579313105370
4093350 32 18130230368010862803
42630746 31 18334009493484051897
449060 50 18334856138843892609
449060 62 18335978744189163320
474 4 18334007315640448305
495365 180 18273210919936626384
5104073 3 17895750828209917841
59755656 215 18408606951008518068
633830 44 18337669703511092751
7164475 11 17915741981364957201
7364860 26 18412265012939942300
8272917 22 18343303652045953172
84936 31 17988924436333557502
9709674 26 18334860524000285547
9999458 23 16588016936025248432

> <PUBCHEM_SHAPE_MULTIPOLES>
445.4
8.81
3.3
1.5
9.31
1.61
-0.47
-3.67
-0.07
-4.26
-1.37
-0.63
1.14
1.66

> <PUBCHEM_SHAPE_SELFOVERLAP>
949.378

> <PUBCHEM_SHAPE_VOLUME>
250.5

> <PUBCHEM_COORDINATE_TYPE>
2
5
10

$$$$
