lig
 OpenBabel04112506323D

 40 42  0  0  0  0  0  0  0  0999 V2000
    0.4278    1.9562   -1.2181 S   0  0  0  0  0  0  0  0  0  0  0  0
   -5.2391   -0.4922    0.4418 F   0  0  0  0  0  0  0  0  0  0  0  0
   -4.8584    1.6358    0.2665 F   0  0  0  0  0  0  0  0  0  0  0  0
   -4.8141    0.3762   -1.5055 F   0  0  0  0  0  0  0  0  0  0  0  0
    1.1844   -0.4910    0.5437 N   0  0  0  0  0  0  0  0  0  0  0  0
   -0.8394   -2.1683    1.8282 N   0  0  0  0  0  0  0  0  0  0  0  0
    1.6068   -1.8248    0.9905 C   0  0  0  0  0  0  0  0  0  0  0  0
   -0.2042   -0.2755    0.3542 C   0  0  0  0  0  0  0  0  0  0  0  0
    2.5582   -2.4583   -0.0209 C   0  0  0  0  0  0  0  0  0  0  0  0
    2.1900    0.4983    0.4008 C   0  0  0  0  0  0  0  0  0  0  0  0
   -0.6727    0.8149   -0.4051 C   0  0  0  0  0  0  0  0  0  0  0  0
    1.9588    1.6649   -0.3547 C   0  0  0  0  0  0  0  0  0  0  0  0
   -1.1780   -1.1133    0.9406 C   0  0  0  0  0  0  0  0  0  0  0  0
    1.9395   -2.5830   -1.4155 C   0  0  0  0  0  0  0  0  0  0  0  0
   -2.0512    1.0289   -0.5831 C   0  0  0  0  0  0  0  0  0  0  0  0
   -2.9839    0.1770   -0.0011 C   0  0  0  0  0  0  0  0  0  0  0  0
    3.4483    0.3823    1.0313 C   0  0  0  0  0  0  0  0  0  0  0  0
   -2.5468   -0.8934    0.7643 C   0  0  0  0  0  0  0  0  0  0  0  0
    2.9573    2.6462   -0.4876 C   0  0  0  0  0  0  0  0  0  0  0  0
    2.9329   -3.1563   -2.4142 C   0  0  0  0  0  0  0  0  0  0  0  0
    4.4354    1.3629    0.8998 C   0  0  0  0  0  0  0  0  0  0  0  0
    4.1909    2.4942    0.1366 C   0  0  0  0  0  0  0  0  0  0  0  0
   -4.4423    0.4182   -0.1927 C   0  0  0  0  0  0  0  0  0  0  0  0
    2.0276   -1.8093    2.0022 H   0  0  0  0  0  0  0  0  0  0  0  0
    0.8692   -2.6152    0.9518 H   0  0  0  0  0  0  0  0  0  0  0  0
    2.8291   -3.4613    0.3362 H   0  0  0  0  0  0  0  0  0  0  0  0
    3.5051   -1.9173   -0.0997 H   0  0  0  0  0  0  0  0  0  0  0  0
    1.0541   -3.2281   -1.3758 H   0  0  0  0  0  0  0  0  0  0  0  0
    1.6133   -1.6068   -1.7893 H   0  0  0  0  0  0  0  0  0  0  0  0
   -2.4040    1.8680   -1.1808 H   0  0  0  0  0  0  0  0  0  0  0  0
    3.6915   -0.4617    1.6712 H   0  0  0  0  0  0  0  0  0  0  0  0
   -3.2682   -1.5527    1.2420 H   0  0  0  0  0  0  0  0  0  0  0  0
    2.7835    3.5420   -1.0804 H   0  0  0  0  0  0  0  0  0  0  0  0
    3.2694   -4.1511   -2.1055 H   0  0  0  0  0  0  0  0  0  0  0  0
    3.8111   -2.5098   -2.5098 H   0  0  0  0  0  0  0  0  0  0  0  0
    2.4687   -3.2460   -3.4014 H   0  0  0  0  0  0  0  0  0  0  0  0
    5.3908    1.2405    1.4017 H   0  0  0  0  0  0  0  0  0  0  0  0
    4.9545    3.2587    0.0307 H   0  0  0  0  0  0  0  0  0  0  0  0
   -1.5617   -2.8461    2.0442 H   0  0  0  0  0  0  0  0  0  0  0  0
   -0.2179   -1.9289    2.5936 H   0  0  0  0  0  0  0  0  0  0  0  0
  1 11  1  0  0  0  0
  1 12  1  0  0  0  0
  2 23  1  0  0  0  0
  3 23  1  0  0  0  0
  4 23  1  0  0  0  0
  5  7  1  0  0  0  0
  5  8  1  0  0  0  0
  5 10  1  0  0  0  0
  6 13  1  0  0  0  0
  6 39  1  0  0  0  0
  6 40  1  0  0  0  0
  7  9  1  0  0  0  0
  7 24  1  0  0  0  0
  7 25  1  0  0  0  0
  8 11  1  0  0  0  0
  8 13  2  0  0  0  0
  9 14  1  0  0  0  0
  9 26  1  0  0  0  0
  9 27  1  0  0  0  0
 10 12  1  0  0  0  0
 10 17  2  0  0  0  0
 11 15  2  0  0  0  0
 12 19  2  0  0  0  0
 13 18  1  0  0  0  0
 14 20  1  0  0  0  0
 14 28  1  0  0  0  0
 14 29  1  0  0  0  0
 15 16  1  0  0  0  0
 15 30  1  0  0  0  0
 16 18  2  0  0  0  0
 16 23  1  0  0  0  0
 17 21  1  0  0  0  0
 17 31  1  0  0  0  0
 18 32  1  0  0  0  0
 19 22  1  0  0  0  0
 19 33  1  0  0  0  0
 20 34  1  0  0  0  0
 20 35  1  0  0  0  0
 20 36  1  0  0  0  0
 21 22  2  0  0  0  0
 21 37  1  0  0  0  0
 22 38  1  0  0  0  0
M  END
