166796104
  Mrv15b2304112506322D          

 40 42  0  0  0  0            999 V2000
    0.3994   -1.9880    0.0000 S   0  0  0  0  0  0  0  0  0  0  0  0
    3.9717   -2.4005    0.0000 F   0  0  0  0  0  0  0  0  0  0  0  0
    3.6697   -1.2736    0.0000 F   0  0  0  0  0  0  0  0  0  0  0  0
    2.8447   -2.7025    0.0000 F   0  0  0  0  0  0  0  0  0  0  0  0
    0.3994   -0.3380    0.0000 N   0  0  0  0  0  0  0  0  0  0  0  0
    1.8283    0.4870    0.0000 N   0  0  0  0  0  0  0  0  0  0  0  0
    0.3994    0.4870    0.0000 C   0  0  0  0  0  0  0  0  0  0  0  0
    1.1138   -0.7505    0.0000 C   0  0  0  0  0  0  0  0  0  0  0  0
   -0.3151    0.8995    0.0000 C   0  0  0  0  0  0  0  0  0  0  0  0
   -0.3151   -0.7505    0.0000 C   0  0  0  0  0  0  0  0  0  0  0  0
    1.1138   -1.5755    0.0000 C   0  0  0  0  0  0  0  0  0  0  0  0
   -0.3151   -1.5755    0.0000 C   0  0  0  0  0  0  0  0  0  0  0  0
    1.8283   -0.3380    0.0000 C   0  0  0  0  0  0  0  0  0  0  0  0
   -0.3151    1.7245    0.0000 C   0  0  0  0  0  0  0  0  0  0  0  0
    1.8283   -1.9880    0.0000 C   0  0  0  0  0  0  0  0  0  0  0  0
    2.5428   -1.5755    0.0000 C   0  0  0  0  0  0  0  0  0  0  0  0
   -1.0296   -0.3380    0.0000 C   0  0  0  0  0  0  0  0  0  0  0  0
    2.5428   -0.7505    0.0000 C   0  0  0  0  0  0  0  0  0  0  0  0
   -1.0296   -1.9880    0.0000 C   0  0  0  0  0  0  0  0  0  0  0  0
   -1.0296    2.1370    0.0000 C   0  0  0  0  0  0  0  0  0  0  0  0
   -1.7440   -0.7505    0.0000 C   0  0  0  0  0  0  0  0  0  0  0  0
   -1.7440   -1.5755    0.0000 C   0  0  0  0  0  0  0  0  0  0  0  0
    3.2572   -1.9880    0.0000 C   0  0  0  0  0  0  0  0  0  0  0  0
    1.1138    0.0745    0.0000 H   0  0  0  0  0  0  0  0  0  0  0  0
    0.3994    1.3120    0.0000 H   0  0  0  0  0  0  0  0  0  0  0  0
   -1.1387    0.8515    0.0000 H   0  0  0  0  0  0  0  0  0  0  0  0
   -0.7685    0.2102    0.0000 H   0  0  0  0  0  0  0  0  0  0  0  0
    0.3169    2.2548    0.0000 H   0  0  0  0  0  0  0  0  0  0  0  0
   -0.1718    2.5369    0.0000 H   0  0  0  0  0  0  0  0  0  0  0  0
    1.8283   -2.8130    0.0000 H   0  0  0  0  0  0  0  0  0  0  0  0
   -1.6355    0.2218    0.0000 H   0  0  0  0  0  0  0  0  0  0  0  0
    3.2572   -0.3380    0.0000 H   0  0  0  0  0  0  0  0  0  0  0  0
   -1.0296   -2.8130    0.0000 H   0  0  0  0  0  0  0  0  0  0  0  0
   -1.1905    2.9461    0.0000 H   0  0  0  0  0  0  0  0  0  0  0  0
   -1.8538    2.1730    0.0000 H   0  0  0  0  0  0  0  0  0  0  0  0
   -1.2604    1.3449    0.0000 H   0  0  0  0  0  0  0  0  0  0  0  0
   -2.4585   -0.3380    0.0000 H   0  0  0  0  0  0  0  0  0  0  0  0
   -2.4585   -1.9880    0.0000 H   0  0  0  0  0  0  0  0  0  0  0  0
    2.5428    0.8995    0.0000 H   0  0  0  0  0  0  0  0  0  0  0  0
    1.1138    0.8995    0.0000 H   0  0  0  0  0  0  0  0  0  0  0  0
  1 11  1  0  0  0  0
  1 12  1  0  0  0  0
  2 23  1  0  0  0  0
  3 23  1  0  0  0  0
  4 23  1  0  0  0  0
  5  7  1  0  0  0  0
  5  8  1  0  0  0  0
  5 10  1  0  0  0  0
  6 13  1  0  0  0  0
  6 39  1  0  0  0  0
  6 40  1  0  0  0  0
  7  9  1  0  0  0  0
  7 24  1  0  0  0  0
  7 25  1  0  0  0  0
  8 11  1  0  0  0  0
  8 13  2  0  0  0  0
  9 14  1  0  0  0  0
  9 26  1  0  0  0  0
  9 27  1  0  0  0  0
 10 12  1  0  0  0  0
 10 17  2  0  0  0  0
 11 15  2  0  0  0  0
 12 19  2  0  0  0  0
 13 18  1  0  0  0  0
 14 20  1  0  0  0  0
 14 28  1  0  0  0  0
 14 29  1  0  0  0  0
 15 16  1  0  0  0  0
 15 30  1  0  0  0  0
 16 18  2  0  0  0  0
 16 23  1  0  0  0  0
 17 21  1  0  0  0  0
 17 31  1  0  0  0  0
 18 32  1  0  0  0  0
 19 22  1  0  0  0  0
 19 33  1  0  0  0  0
 20 34  1  0  0  0  0
 20 35  1  0  0  0  0
 20 36  1  0  0  0  0
 21 22  2  0  0  0  0
 21 37  1  0  0  0  0
 22 38  1  0  0  0  0
M  END
