162443215
  Mrv15b2304152517503D          

 55 59  0  0  0  0            999 V2000
    8.5494   -1.9366    0.5474 S   0  0  0  0  0  0  0  0  0  0  0  0
   14.7210   13.9979    0.8551 F   0  0  0  0  0  0  0  0  0  0  0  0
   13.7508   13.8079    2.8638 F   0  0  0  0  0  0  0  0  0  0  0  0
   13.2001   11.4561    1.1276 O   0  0  0  0  0  0  0  0  0  0  0  0
   11.4267   -1.8648    1.9292 N   0  0  1  0  0  0  0  0  0  0  0  0
   13.4376    4.4519    0.0678 N   0  0  0  0  0  0  0  0  0  0  0  0
   14.9697    3.7944    1.3732 N   0  0  0  0  0  0  0  0  0  0  0  0
   14.6333    4.6982    0.5204 N   0  0  0  0  0  0  0  0  0  0  0  0
   11.2336   11.5107    0.1963 N   0  0  0  0  0  0  0  0  0  0  0  0
   11.5805   12.7324    0.4661 N   0  0  0  0  0  0  0  0  0  0  0  0
   10.4876   -2.9802    2.2840 C   0  0  2  0  0  0  0  0  0  0  0  0
   11.0719   -0.9032    0.8179 C   0  0  2  0  0  0  0  0  0  0  0  0
   11.8619   -1.2139    3.2025 C   0  0  1  0  0  0  0  0  0  0  0  0
    9.4635   -3.4038    1.1965 C   0  0  1  0  0  0  0  0  0  0  0  0
    9.5990   -0.4441    0.7765 C   0  0  2  0  0  0  0  0  0  0  0  0
   13.0591   -0.3711    3.1040 C   0  0  0  0  0  0  0  0  0  0  0  0
   12.9034    0.9649    2.6192 C   0  0  0  0  0  0  0  0  0  0  0  0
   14.3715   -0.8989    3.3412 C   0  0  0  0  0  0  0  0  0  0  0  0
   14.0562    1.7032    2.2359 C   0  0  0  0  0  0  0  0  0  0  0  0
   13.9643    2.9154    1.4923 C   0  0  0  0  0  0  0  0  0  0  0  0
   15.5385   -0.1529    3.0547 C   0  0  0  0  0  0  0  0  0  0  0  0
   15.3523    1.1447    2.4811 C   0  0  0  0  0  0  0  0  0  0  0  0
   12.7765    5.2395   -0.9194 C   0  0  2  0  0  0  0  0  0  0  0  0
   12.9323    3.3685    0.6597 C   0  0  0  0  0  0  0  0  0  0  0  0
   12.5724    6.6238   -0.4418 C   0  0  0  0  0  0  0  0  0  0  0  0
   11.2478    7.1447   -0.2912 C   0  0  0  0  0  0  0  0  0  0  0  0
   13.7336    7.4140   -0.1691 C   0  0  0  0  0  0  0  0  0  0  0  0
   12.2680    9.2889    0.3878 C   0  0  0  0  0  0  0  0  0  0  0  0
   11.0821    8.4952    0.1431 C   0  0  0  0  0  0  0  0  0  0  0  0
   13.5943    8.7456    0.2748 C   0  0  0  0  0  0  0  0  0  0  0  0
   12.2277   10.6919    0.5839 C   0  0  0  0  0  0  0  0  0  0  0  0
   12.7905   12.7408    1.0513 C   0  0  0  0  0  0  0  0  0  0  0  0
   13.5228   13.9153    1.5161 C   0  0  2  0  0  0  0  0  0  0  0  0
    9.9586   -2.7311    3.2038 H   0  0  0  0  0  0  0  0  0  0  0  0
   11.0732   -3.8423    2.6032 H   0  0  0  0  0  0  0  0  0  0  0  0
   11.3428   -1.3418   -0.1424 H   0  0  0  0  0  0  0  0  0  0  0  0
   11.6845   -0.0119    0.9539 H   0  0  0  0  0  0  0  0  0  0  0  0
   11.0382   -0.6288    3.6114 H   0  0  0  0  0  0  0  0  0  0  0  0
   12.0729   -2.0510    3.8680 H   0  0  0  0  0  0  0  0  0  0  0  0
    8.7548   -4.1144    1.6218 H   0  0  0  0  0  0  0  0  0  0  0  0
   10.0289   -3.8267    0.3661 H   0  0  0  0  0  0  0  0  0  0  0  0
    9.3425    0.0393    1.7192 H   0  0  0  0  0  0  0  0  0  0  0  0
    9.4169    0.2570   -0.0380 H   0  0  0  0  0  0  0  0  0  0  0  0
   11.9759    1.3835    2.5491 H   0  0  0  0  0  0  0  0  0  0  0  0
   14.4658   -1.8383    3.7271 H   0  0  0  0  0  0  0  0  0  0  0  0
   16.1761    1.6944    2.2368 H   0  0  0  0  0  0  0  0  0  0  0  0
   16.4692   -0.5225    3.2481 H   0  0  0  0  0  0  0  0  0  0  0  0
   11.8117    4.7908   -1.1559 H   0  0  0  0  0  0  0  0  0  0  0  0
   13.4773    5.3165   -1.7507 H   0  0  0  0  0  0  0  0  0  0  0  0
   12.0051    2.9621    0.5345 H   0  0  0  0  0  0  0  0  0  0  0  0
   10.4355    6.5610   -0.4908 H   0  0  0  0  0  0  0  0  0  0  0  0
   14.6633    7.0139   -0.2959 H   0  0  0  0  0  0  0  0  0  0  0  0
   10.1515    8.8906    0.2775 H   0  0  0  0  0  0  0  0  0  0  0  0
   14.4124    9.3078    0.5093 H   0  0  0  0  0  0  0  0  0  0  0  0
   12.9355   14.8117    1.3173 H   0  0  0  0  0  0  0  0  0  0  0  0
  1 14  1  0  0  0  0
  1 15  1  0  0  0  0
  2 33  1  0  0  0  0
  3 33  1  0  0  0  0
  4 31  1  0  0  0  0
  4 32  1  0  0  0  0
  5 11  1  0  0  0  0
  5 12  1  0  0  0  0
  5 13  1  0  0  0  0
  6  8  1  0  0  0  0
  6 23  1  0  0  0  0
  6 24  1  0  0  0  0
  7  8  2  0  0  0  0
  7 20  1  0  0  0  0
  9 10  1  0  0  0  0
  9 31  2  0  0  0  0
 10 32  2  0  0  0  0
 11 14  1  0  0  0  0
 11 34  1  0  0  0  0
 11 35  1  0  0  0  0
 12 15  1  0  0  0  0
 12 36  1  0  0  0  0
 12 37  1  0  0  0  0
 13 16  1  0  0  0  0
 13 38  1  0  0  0  0
 13 39  1  0  0  0  0
 14 40  1  0  0  0  0
 14 41  1  0  0  0  0
 15 42  1  0  0  0  0
 15 43  1  0  0  0  0
 16 17  2  0  0  0  0
 16 18  1  0  0  0  0
 17 19  1  0  0  0  0
 17 44  1  0  0  0  0
 18 21  2  0  0  0  0
 18 45  1  0  0  0  0
 19 20  1  0  0  0  0
 19 22  2  0  0  0  0
 20 24  2  0  0  0  0
 21 22  1  0  0  0  0
 21 47  1  0  0  0  0
 22 46  1  0  0  0  0
 23 25  1  0  0  0  0
 23 48  1  0  0  0  0
 23 49  1  0  0  0  0
 24 50  1  0  0  0  0
 25 26  2  0  0  0  0
 25 27  1  0  0  0  0
 26 29  1  0  0  0  0
 26 51  1  0  0  0  0
 27 30  2  0  0  0  0
 27 52  1  0  0  0  0
 28 29  2  0  0  0  0
 28 30  1  0  0  0  0
 28 31  1  0  0  0  0
 29 53  1  0  0  0  0
 30 54  1  0  0  0  0
 32 33  1  0  0  0  0
 33 55  1  0  0  0  0
M  END
