@<TRIPOS>MOLECULE
lig
 55 59 0 0 0
SMALL
GASTEIGER

@<TRIPOS>ATOM
      1 S           8.5494   -1.9366    0.5474 S.3     1  UNL11      -0.1582
      2 F          14.7210   13.9979    0.8551 F       1  UNL11      -0.1987
      3 F          13.7508   13.8079    2.8638 F       1  UNL11      -0.1987
      4 O          13.2001   11.4561    1.1276 O.2     1  UNL11      -0.4149
      5 N          11.4267   -1.8648    1.9292 N.3     1  UNL11      -0.2966
      6 N          13.4376    4.4519    0.0678 N.ar    1  UNL11      -0.2468
      7 N          14.9697    3.7944    1.3732 N.ar    1  UNL11      -0.1295
      8 N          14.6333    4.6982    0.5204 N.ar    1  UNL11      -0.0648
      9 N          11.2336   11.5107    0.1963 N.ar    1  UNL11      -0.1071
     10 N          11.5805   12.7324    0.4661 N.ar    1  UNL11      -0.1060
     11 C          10.4876   -2.9802    2.2840 C.3     1  UNL11       0.0083
     12 C          11.0719   -0.9032    0.8179 C.3     1  UNL11       0.0083
     13 C          11.8619   -1.2139    3.2025 C.3     1  UNL11       0.0241
     14 C           9.4635   -3.4038    1.1965 C.3     1  UNL11       0.0065
     15 C           9.5990   -0.4441    0.7765 C.3     1  UNL11       0.0065
     16 C          13.0591   -0.3711    3.1040 C.ar    1  UNL11      -0.0327
     17 C          12.9034    0.9649    2.6192 C.ar    1  UNL11      -0.0480
     18 C          14.3715   -0.8989    3.3412 C.ar    1  UNL11      -0.0573
     19 C          14.0562    1.7032    2.2359 C.ar    1  UNL11       0.0039
     20 C          13.9643    2.9154    1.4923 C.ar    1  UNL11       0.1126
     21 C          15.5385   -0.1529    3.0547 C.ar    1  UNL11      -0.0608
     22 C          15.3523    1.1447    2.4811 C.ar    1  UNL11      -0.0524
     23 C          12.7765    5.2395   -0.9194 C.3     1  UNL11       0.0682
     24 C          12.9323    3.3685    0.6597 C.ar    1  UNL11       0.0537
     25 C          12.5724    6.6238   -0.4418 C.ar    1  UNL11      -0.0260
     26 C          11.2478    7.1447   -0.2912 C.ar    1  UNL11      -0.0561
     27 C          13.7336    7.4140   -0.1691 C.ar    1  UNL11      -0.0561
     28 C          12.2680    9.2889    0.3878 C.ar    1  UNL11       0.0385
     29 C          11.0821    8.4952    0.1431 C.ar    1  UNL11      -0.0491
     30 C          13.5943    8.7456    0.2748 C.ar    1  UNL11      -0.0491
     31 C          12.2277   10.6919    0.5839 C.ar    1  UNL11       0.2486
     32 C          12.7905   12.7408    1.0513 C.ar    1  UNL11       0.2836
     33 C          13.5228   13.9153    1.5161 C.3     1  UNL11       0.3150
     34 H           9.9586   -2.7311    3.2038 H       1  UNL11       0.0435
     35 H          11.0732   -3.8423    2.6032 H       1  UNL11       0.0435
     36 H          11.3428   -1.3418   -0.1424 H       1  UNL11       0.0435
     37 H          11.6845   -0.0119    0.9539 H       1  UNL11       0.0435
     38 H          11.0382   -0.6288    3.6114 H       1  UNL11       0.0476
     39 H          12.0729   -2.0510    3.8680 H       1  UNL11       0.0476
     40 H           8.7548   -4.1144    1.6218 H       1  UNL11       0.0389
     41 H          10.0289   -3.8267    0.3661 H       1  UNL11       0.0389
     42 H           9.3425    0.0393    1.7192 H       1  UNL11       0.0389
     43 H           9.4169    0.2570   -0.0380 H       1  UNL11       0.0389
     44 H          11.9759    1.3835    2.5491 H       1  UNL11       0.0627
     45 H          14.4658   -1.8383    3.7271 H       1  UNL11       0.0621
     46 H          16.1761    1.6944    2.2368 H       1  UNL11       0.0624
     47 H          16.4692   -0.5225    3.2481 H       1  UNL11       0.0618
     48 H          11.8117    4.7908   -1.1559 H       1  UNL11       0.0559
     49 H          13.4773    5.3165   -1.7507 H       1  UNL11       0.0559
     50 H          12.0051    2.9621    0.5345 H       1  UNL11       0.0849
     51 H          10.4355    6.5610   -0.4908 H       1  UNL11       0.0621
     52 H          14.6633    7.0139   -0.2959 H       1  UNL11       0.0621
     53 H          10.1515    8.8906    0.2775 H       1  UNL11       0.0625
     54 H          14.4124    9.3078    0.5093 H       1  UNL11       0.0625
     55 H          12.9355   14.8117    1.3173 H       1  UNL11       0.1122
@<TRIPOS>BOND
     1     1    14    1
     2     1    15    1
     3     2    33    1
     4     3    33    1
     5     4    31   ar
     6     4    32   ar
     7     5    11    1
     8     5    12    1
     9     5    13    1
    10     6     8   ar
    11     6    23    1
    12     6    24   ar
    13     7     8   ar
    14     7    20   ar
    15     9    10   ar
    16     9    31   ar
    17    10    32   ar
    18    11    14    1
    19    11    34    1
    20    11    35    1
    21    12    15    1
    22    12    36    1
    23    12    37    1
    24    13    16    1
    25    13    38    1
    26    13    39    1
    27    14    40    1
    28    14    41    1
    29    15    42    1
    30    15    43    1
    31    16    17   ar
    32    16    18   ar
    33    17    19   ar
    34    17    44    1
    35    18    21   ar
    36    18    45    1
    37    19    20    1
    38    19    22   ar
    39    20    24   ar
    40    21    22   ar
    41    21    47    1
    42    22    46    1
    43    23    25    1
    44    23    48    1
    45    23    49    1
    46    24    50    1
    47    25    26   ar
    48    25    27   ar
    49    26    29   ar
    50    26    51    1
    51    27    30   ar
    52    27    52    1
    53    28    29   ar
    54    28    30   ar
    55    28    31    1
    56    29    53    1
    57    30    54    1
    58    32    33    1
    59    33    55    1
