162443215
  Mrv15b2304152517492D          

 55 59  0  0  0  0            999 V2000
    4.5411   -3.7026    0.0000 S   0  0  0  0  0  0  0  0  0  0  0  0
   -4.2241    5.3780    0.0000 F   0  0  0  0  0  0  0  0  0  0  0  0
   -2.7951    5.3780    0.0000 F   0  0  0  0  0  0  0  0  0  0  0  0
   -2.8422    3.6556    0.0000 O   0  0  0  0  0  0  0  0  0  0  0  0
    3.1122   -2.8776    0.0000 N   0  0  0  0  0  0  0  0  0  0  0  0
   -0.3369    0.2875    0.0000 N   0  0  0  0  0  0  0  0  0  0  0  0
    0.8825    0.8304    0.0000 N   0  0  0  0  0  0  0  0  0  0  0  0
    0.0756    1.0019    0.0000 N   0  0  0  0  0  0  0  0  0  0  0  0
   -3.9221    2.8710    0.0000 N   0  0  0  0  0  0  0  0  0  0  0  0
   -4.1770    3.6556    0.0000 N   0  0  0  0  0  0  0  0  0  0  0  0
    3.1122   -3.7026    0.0000 C   0  0  0  0  0  0  0  0  0  0  0  0
    3.8267   -2.4651    0.0000 C   0  0  0  0  0  0  0  0  0  0  0  0
    2.3977   -2.4651    0.0000 C   0  0  0  0  0  0  0  0  0  0  0  0
    3.8267   -4.1151    0.0000 C   0  0  0  0  0  0  0  0  0  0  0  0
    4.5411   -2.8776    0.0000 C   0  0  0  0  0  0  0  0  0  0  0  0
    2.3977   -1.6401    0.0000 C   0  0  0  0  0  0  0  0  0  0  0  0
    1.6833   -1.2276    0.0000 C   0  0  0  0  0  0  0  0  0  0  0  0
    3.1122   -1.2276    0.0000 C   0  0  0  0  0  0  0  0  0  0  0  0
    1.6833   -0.4026    0.0000 C   0  0  0  0  0  0  0  0  0  0  0  0
    0.9688    0.0099    0.0000 C   0  0  0  0  0  0  0  0  0  0  0  0
    3.1122   -0.4026    0.0000 C   0  0  0  0  0  0  0  0  0  0  0  0
    2.3977    0.0099    0.0000 C   0  0  0  0  0  0  0  0  0  0  0  0
   -1.1574    0.2012    0.0000 C   0  0  0  0  0  0  0  0  0  0  0  0
    0.2151   -0.3256    0.0000 C   0  0  0  0  0  0  0  0  0  0  0  0
   -1.6423    0.8687    0.0000 C   0  0  0  0  0  0  0  0  0  0  0  0
   -2.4628    0.7824    0.0000 C   0  0  0  0  0  0  0  0  0  0  0  0
   -1.3068    1.6224    0.0000 C   0  0  0  0  0  0  0  0  0  0  0  0
   -2.6122    2.2036    0.0000 C   0  0  0  0  0  0  0  0  0  0  0  0
   -2.9477    1.4499    0.0000 C   0  0  0  0  0  0  0  0  0  0  0  0
   -1.7917    2.2898    0.0000 C   0  0  0  0  0  0  0  0  0  0  0  0
   -3.0971    2.8710    0.0000 C   0  0  0  0  0  0  0  0  0  0  0  0
   -3.5096    4.1405    0.0000 C   0  0  0  0  0  0  0  0  0  0  0  0
   -3.5096    4.9655    0.0000 C   0  0  0  0  0  0  0  0  0  0  0  0
    2.2886   -3.7505    0.0000 H   0  0  0  0  0  0  0  0  0  0  0  0
    2.6588   -4.3918    0.0000 H   0  0  0  0  0  0  0  0  0  0  0  0
    4.1969   -1.7278    0.0000 H   0  0  0  0  0  0  0  0  0  0  0  0
    3.4564   -1.7278    0.0000 H   0  0  0  0  0  0  0  0  0  0  0  0
    1.5741   -2.5130    0.0000 H   0  0  0  0  0  0  0  0  0  0  0  0
    1.9444   -3.1543    0.0000 H   0  0  0  0  0  0  0  0  0  0  0  0
    3.4564   -4.8523    0.0000 H   0  0  0  0  0  0  0  0  0  0  0  0
    4.1969   -4.8523    0.0000 H   0  0  0  0  0  0  0  0  0  0  0  0
    5.3647   -2.8296    0.0000 H   0  0  0  0  0  0  0  0  0  0  0  0
    4.9945   -2.1883    0.0000 H   0  0  0  0  0  0  0  0  0  0  0  0
    0.9688   -1.6401    0.0000 H   0  0  0  0  0  0  0  0  0  0  0  0
    3.9000   -0.9827    0.0000 H   0  0  0  0  0  0  0  0  0  0  0  0
    2.3977    0.8349    0.0000 H   0  0  0  0  0  0  0  0  0  0  0  0
    3.8267    0.0099    0.0000 H   0  0  0  0  0  0  0  0  0  0  0  0
   -1.7955   -0.3217    0.0000 H   0  0  0  0  0  0  0  0  0  0  0  0
   -1.1190   -0.6229    0.0000 H   0  0  0  0  0  0  0  0  0  0  0  0
    0.0436   -1.1326    0.0000 H   0  0  0  0  0  0  0  0  0  0  0  0
   -2.7984    0.0288    0.0000 H   0  0  0  0  0  0  0  0  0  0  0  0
   -0.4863    1.7086    0.0000 H   0  0  0  0  0  0  0  0  0  0  0  0
   -3.7682    1.3636    0.0000 H   0  0  0  0  0  0  0  0  0  0  0  0
   -1.4561    3.0435    0.0000 H   0  0  0  0  0  0  0  0  0  0  0  0
   -3.5096    5.7905    0.0000 H   0  0  0  0  0  0  0  0  0  0  0  0
  1 14  1  0  0  0  0
  1 15  1  0  0  0  0
  2 33  1  0  0  0  0
  3 33  1  0  0  0  0
  4 31  1  0  0  0  0
  4 32  1  0  0  0  0
  5 11  1  0  0  0  0
  5 12  1  0  0  0  0
  5 13  1  0  0  0  0
  6  8  1  0  0  0  0
  6 23  1  0  0  0  0
  6 24  1  0  0  0  0
  7  8  2  0  0  0  0
  7 20  1  0  0  0  0
  9 10  1  0  0  0  0
  9 31  2  0  0  0  0
 10 32  2  0  0  0  0
 11 14  1  0  0  0  0
 11 34  1  0  0  0  0
 11 35  1  0  0  0  0
 12 15  1  0  0  0  0
 12 36  1  0  0  0  0
 12 37  1  0  0  0  0
 13 16  1  0  0  0  0
 13 38  1  0  0  0  0
 13 39  1  0  0  0  0
 14 40  1  0  0  0  0
 14 41  1  0  0  0  0
 15 42  1  0  0  0  0
 15 43  1  0  0  0  0
 16 17  2  0  0  0  0
 16 18  1  0  0  0  0
 17 19  1  0  0  0  0
 17 44  1  0  0  0  0
 18 21  2  0  0  0  0
 18 45  1  0  0  0  0
 19 20  1  0  0  0  0
 19 22  2  0  0  0  0
 20 24  2  0  0  0  0
 21 22  1  0  0  0  0
 21 47  1  0  0  0  0
 22 46  1  0  0  0  0
 23 25  1  0  0  0  0
 23 48  1  0  0  0  0
 23 49  1  0  0  0  0
 24 50  1  0  0  0  0
 25 26  2  0  0  0  0
 25 27  1  0  0  0  0
 26 29  1  0  0  0  0
 26 51  1  0  0  0  0
 27 30  2  0  0  0  0
 27 52  1  0  0  0  0
 28 29  2  0  0  0  0
 28 30  1  0  0  0  0
 28 31  1  0  0  0  0
 29 53  1  0  0  0  0
 30 54  1  0  0  0  0
 32 33  1  0  0  0  0
 33 55  1  0  0  0  0
M  END
