lig
 OpenBabel04152517503D

 55 59  0  0  0  0  0  0  0  0999 V2000
    6.3203   -4.1672    1.8284 S   0  0  0  0  0  0  0  0  0  0  0  0
   -7.7552   -3.1844    0.3564 F   0  0  0  0  0  0  0  0  0  0  0  0
   -6.7024   -3.5141   -1.5104 F   0  0  0  0  0  0  0  0  0  0  0  0
   -5.7138   -1.1448   -0.1115 O   0  0  0  0  0  0  0  0  0  0  0  0
    5.1855   -2.0903   -0.3113 N   0  0  0  0  0  0  0  0  0  0  0  0
    0.4303    2.3299    1.2372 N   0  0  0  0  0  0  0  0  0  0  0  0
    1.4992    3.4007   -0.2919 N   0  0  0  0  0  0  0  0  0  0  0  0
    0.4241    3.4439    0.4873 N   0  0  0  0  0  0  0  0  0  0  0  0
   -6.4178    0.8427   -0.8590 N   0  0  0  0  0  0  0  0  0  0  0  0
   -7.3555   -0.1063   -1.2207 N   0  0  0  0  0  0  0  0  0  0  0  0
    5.0092   -3.5348   -0.5257 C   0  0  0  0  0  0  0  0  0  0  0  0
    6.4358   -1.7961    0.4056 C   0  0  0  0  0  0  0  0  0  0  0  0
    5.1667   -1.3868   -1.5960 C   0  0  0  0  0  0  0  0  0  0  0  0
    4.8473   -4.3082    0.7810 C   0  0  0  0  0  0  0  0  0  0  0  0
    6.4466   -2.3587    1.8251 C   0  0  0  0  0  0  0  0  0  0  0  0
    4.8595    0.0776   -1.4288 C   0  0  0  0  0  0  0  0  0  0  0  0
    3.6756    0.4761   -0.8081 C   0  0  0  0  0  0  0  0  0  0  0  0
    5.7593    1.0361   -1.8951 C   0  0  0  0  0  0  0  0  0  0  0  0
    3.3916    1.8330   -0.6536 C   0  0  0  0  0  0  0  0  0  0  0  0
    2.1730    2.2437   -0.0144 C   0  0  0  0  0  0  0  0  0  0  0  0
    5.4753    2.3929   -1.7406 C   0  0  0  0  0  0  0  0  0  0  0  0
    4.2914    2.7914   -1.1199 C   0  0  0  0  0  0  0  0  0  0  0  0
   -0.6197    2.0804    2.1917 C   0  0  0  0  0  0  0  0  0  0  0  0
    1.5066    1.5445    0.9603 C   0  0  0  0  0  0  0  0  0  0  0  0
   -1.8965    1.5840    1.5595 C   0  0  0  0  0  0  0  0  0  0  0  0
   -2.7520    2.4806    0.9193 C   0  0  0  0  0  0  0  0  0  0  0  0
   -2.2214    0.2287    1.6152 C   0  0  0  0  0  0  0  0  0  0  0  0
   -4.2573    0.6665    0.3904 C   0  0  0  0  0  0  0  0  0  0  0  0
   -3.9325    2.0218    0.3347 C   0  0  0  0  0  0  0  0  0  0  0  0
   -3.4018   -0.2301    1.0307 C   0  0  0  0  0  0  0  0  0  0  0  0
   -5.4779    0.1918   -0.2143 C   0  0  0  0  0  0  0  0  0  0  0  0
   -6.9036   -1.2508   -0.7639 C   0  0  0  0  0  0  0  0  0  0  0  0
   -7.4897   -2.5936   -0.8576 C   0  0  0  0  0  0  0  0  0  0  0  0
    5.8364   -3.9501   -1.1173 H   0  0  0  0  0  0  0  0  0  0  0  0
    4.0927   -3.7035   -1.1059 H   0  0  0  0  0  0  0  0  0  0  0  0
    6.5648   -0.7114    0.5049 H   0  0  0  0  0  0  0  0  0  0  0  0
    7.3078   -2.1631   -0.1532 H   0  0  0  0  0  0  0  0  0  0  0  0
    6.1032   -1.5407   -2.1489 H   0  0  0  0  0  0  0  0  0  0  0  0
    4.3719   -1.7859   -2.2418 H   0  0  0  0  0  0  0  0  0  0  0  0
    4.6818   -5.3687    0.5651 H   0  0  0  0  0  0  0  0  0  0  0  0
    3.9769   -3.9497    1.3415 H   0  0  0  0  0  0  0  0  0  0  0  0
    5.6227   -1.9431    2.4159 H   0  0  0  0  0  0  0  0  0  0  0  0
    7.3796   -2.0810    2.3262 H   0  0  0  0  0  0  0  0  0  0  0  0
    2.9767   -0.2841   -0.4660 H   0  0  0  0  0  0  0  0  0  0  0  0
    6.6860    0.7404   -2.3795 H   0  0  0  0  0  0  0  0  0  0  0  0
    4.0921    3.8544   -1.0069 H   0  0  0  0  0  0  0  0  0  0  0  0
    6.1766    3.1391   -2.1026 H   0  0  0  0  0  0  0  0  0  0  0  0
   -0.8044    3.0127    2.7397 H   0  0  0  0  0  0  0  0  0  0  0  0
   -0.2437    1.3594    2.9276 H   0  0  0  0  0  0  0  0  0  0  0  0
    1.6889    0.6056    1.4650 H   0  0  0  0  0  0  0  0  0  0  0  0
   -2.5145    3.5399    0.8731 H   0  0  0  0  0  0  0  0  0  0  0  0
   -1.5623   -0.4802    2.1092 H   0  0  0  0  0  0  0  0  0  0  0  0
   -4.5852    2.7382   -0.1582 H   0  0  0  0  0  0  0  0  0  0  0  0
   -3.6210   -1.2929    1.0938 H   0  0  0  0  0  0  0  0  0  0  0  0
   -8.4386   -2.5526   -1.4000 H   0  0  0  0  0  0  0  0  0  0  0  0
  1 14  1  0  0  0  0
  1 15  1  0  0  0  0
  2 33  1  0  0  0  0
  3 33  1  0  0  0  0
  4 31  1  0  0  0  0
  4 32  1  0  0  0  0
  5 11  1  0  0  0  0
  5 12  1  0  0  0  0
  5 13  1  0  0  0  0
  6  8  1  0  0  0  0
  6 23  1  0  0  0  0
  6 24  1  0  0  0  0
  7  8  2  0  0  0  0
  7 20  1  0  0  0  0
  9 10  1  0  0  0  0
  9 31  2  0  0  0  0
 10 32  2  0  0  0  0
 11 14  1  0  0  0  0
 11 34  1  0  0  0  0
 11 35  1  0  0  0  0
 12 15  1  0  0  0  0
 12 36  1  0  0  0  0
 12 37  1  0  0  0  0
 13 16  1  0  0  0  0
 13 38  1  0  0  0  0
 13 39  1  0  0  0  0
 14 40  1  0  0  0  0
 14 41  1  0  0  0  0
 15 42  1  0  0  0  0
 15 43  1  0  0  0  0
 16 17  2  0  0  0  0
 16 18  1  0  0  0  0
 17 19  1  0  0  0  0
 17 44  1  0  0  0  0
 18 21  2  0  0  0  0
 18 45  1  0  0  0  0
 19 20  1  0  0  0  0
 19 22  2  0  0  0  0
 20 24  2  0  0  0  0
 21 22  1  0  0  0  0
 21 47  1  0  0  0  0
 22 46  1  0  0  0  0
 23 25  1  0  0  0  0
 23 48  1  0  0  0  0
 23 49  1  0  0  0  0
 24 50  1  0  0  0  0
 25 26  2  0  0  0  0
 25 27  1  0  0  0  0
 26 29  1  0  0  0  0
 26 51  1  0  0  0  0
 27 30  2  0  0  0  0
 27 52  1  0  0  0  0
 28 29  2  0  0  0  0
 28 30  1  0  0  0  0
 28 31  1  0  0  0  0
 29 53  1  0  0  0  0
 30 54  1  0  0  0  0
 32 33  1  0  0  0  0
 33 55  1  0  0  0  0
M  END
