57232718
  -OEChem-04112506203D

 60 63  0     1  0  0  0  0  0999 V2000
   -6.4197    0.0406    2.0014 S   0  0  0  0  0  0  0  0  0  0  0  0
    4.0891   -4.5666   -0.3300 F   0  0  0  0  0  0  0  0  0  0  0  0
    2.2644   -3.9681   -1.3500 F   0  0  0  0  0  0  0  0  0  0  0  0
    4.1577   -3.0656   -1.9017 F   0  0  0  0  0  0  0  0  0  0  0  0
   -2.4545    0.7954   -0.0988 N   0  0  0  0  0  0  0  0  0  0  0  0
   -5.8274   -0.6541   -1.0668 N   0  0  2  0  0  0  0  0  0  0  0  0
   -4.7096   -0.2258   -0.1896 C   0  0  1  0  0  0  0  0  0  0  0  0
   -3.5798    0.4663   -0.9734 C   0  0  0  0  0  0  0  0  0  0  0  0
   -1.6425    1.8734   -0.6883 C   0  0  0  0  0  0  0  0  0  0  0  0
   -1.6361   -0.4017    0.1587 C   0  0  0  0  0  0  0  0  0  0  0  0
   -0.4860    2.2723    0.2355 C   0  0  0  0  0  0  0  0  0  0  0  0
   -0.4792   -0.0937    1.1161 C   0  0  0  0  0  0  0  0  0  0  0  0
    0.3323    1.0650    0.6040 C   0  0  0  0  0  0  0  0  0  0  0  0
   -5.1867    0.7651    0.8893 C   0  0  0  0  0  0  0  0  0  0  0  0
   -6.8643   -1.3833   -0.3115 C   0  0  0  0  0  0  0  0  0  0  0  0
   -7.5728   -0.5232    0.7293 C   0  0  0  0  0  0  0  0  0  0  0  0
    1.6635    1.0150    0.4585 C   0  0  0  0  0  0  0  0  0  0  0  0
   -5.3743   -1.4993   -2.1780 C   0  0  0  0  0  0  0  0  0  0  0  0
    2.3680   -0.2444    0.8217 C   0  0  0  0  0  0  0  0  0  0  0  0
    2.3644    2.2218   -0.0578 C   0  0  0  0  0  0  0  0  0  0  0  0
    2.5599   -1.2377   -0.1387 C   0  0  0  0  0  0  0  0  0  0  0  0
    2.8365   -0.4316    2.1222 C   0  0  0  0  0  0  0  0  0  0  0  0
    2.5546    2.3842   -1.4300 C   0  0  0  0  0  0  0  0  0  0  0  0
    2.8311    3.1906    0.8304 C   0  0  0  0  0  0  0  0  0  0  0  0
    3.2203   -2.4182    0.2014 C   0  0  0  0  0  0  0  0  0  0  0  0
    3.4969   -1.6123    2.4622 C   0  0  0  0  0  0  0  0  0  0  0  0
    3.2117    3.5155   -1.9141 C   0  0  0  0  0  0  0  0  0  0  0  0
    3.4880    4.3219    0.3465 C   0  0  0  0  0  0  0  0  0  0  0  0
    3.6888   -2.6056    1.5018 C   0  0  0  0  0  0  0  0  0  0  0  0
    3.6784    4.4844   -1.0258 C   0  0  0  0  0  0  0  0  0  0  0  0
    3.4272   -3.4804   -0.8248 C   0  0  0  0  0  0  0  0  0  0  0  0
   -4.3113   -1.1224    0.3023 H   0  0  0  0  0  0  0  0  0  0  0  0
   -3.9950    1.3803   -1.4213 H   0  0  0  0  0  0  0  0  0  0  0  0
   -3.2130   -0.1414   -1.8076 H   0  0  0  0  0  0  0  0  0  0  0  0
   -1.2492    1.5727   -1.6690 H   0  0  0  0  0  0  0  0  0  0  0  0
   -2.2668    2.7618   -0.8453 H   0  0  0  0  0  0  0  0  0  0  0  0
   -2.2335   -1.1924    0.6238 H   0  0  0  0  0  0  0  0  0  0  0  0
   -1.2343   -0.8098   -0.7790 H   0  0  0  0  0  0  0  0  0  0  0  0
   -0.8948    2.7036    1.1594 H   0  0  0  0  0  0  0  0  0  0  0  0
    0.0662    3.0791   -0.2518 H   0  0  0  0  0  0  0  0  0  0  0  0
    0.0788   -1.0196    1.2734 H   0  0  0  0  0  0  0  0  0  0  0  0
   -0.8873    0.1815    2.0982 H   0  0  0  0  0  0  0  0  0  0  0  0
   -4.3621    1.0894    1.5313 H   0  0  0  0  0  0  0  0  0  0  0  0
   -5.6157    1.6663    0.4354 H   0  0  0  0  0  0  0  0  0  0  0  0
   -6.4480   -2.2870    0.1548 H   0  0  0  0  0  0  0  0  0  0  0  0
   -7.6409   -1.7242   -1.0089 H   0  0  0  0  0  0  0  0  0  0  0  0
   -8.0474    0.3467    0.2621 H   0  0  0  0  0  0  0  0  0  0  0  0
   -8.3630   -1.1045    1.2151 H   0  0  0  0  0  0  0  0  0  0  0  0
   -4.8022   -0.9233   -2.9113 H   0  0  0  0  0  0  0  0  0  0  0  0
   -6.2279   -1.8979   -2.7394 H   0  0  0  0  0  0  0  0  0  0  0  0
   -4.7712   -2.3467   -1.8332 H   0  0  0  0  0  0  0  0  0  0  0  0
    2.1959   -1.0976   -1.1544 H   0  0  0  0  0  0  0  0  0  0  0  0
    2.6941    0.3329    2.8820 H   0  0  0  0  0  0  0  0  0  0  0  0
    2.1958    1.6383   -2.1350 H   0  0  0  0  0  0  0  0  0  0  0  0
    2.6901    3.0788    1.9027 H   0  0  0  0  0  0  0  0  0  0  0  0
    3.8615   -1.7581    3.4748 H   0  0  0  0  0  0  0  0  0  0  0  0
    3.3596    3.6421   -2.9826 H   0  0  0  0  0  0  0  0  0  0  0  0
    3.8512    5.0765    1.0381 H   0  0  0  0  0  0  0  0  0  0  0  0
    4.2057   -3.5175    1.7874 H   0  0  0  0  0  0  0  0  0  0  0  0
    4.1899    5.3653   -1.4026 H   0  0  0  0  0  0  0  0  0  0  0  0
  1 14  1  0  0  0  0
  1 16  1  0  0  0  0
  2 31  1  0  0  0  0
  3 31  1  0  0  0  0
  4 31  1  0  0  0  0
  5  8  1  0  0  0  0
  5  9  1  0  0  0  0
  5 10  1  0  0  0  0
  6  7  1  0  0  0  0
  6 15  1  0  0  0  0
  6 18  1  0  0  0  0
  7  8  1  0  0  0  0
  7 14  1  0  0  0  0
  7 32  1  0  0  0  0
  8 33  1  0  0  0  0
  8 34  1  0  0  0  0
  9 11  1  0  0  0  0
  9 35  1  0  0  0  0
  9 36  1  0  0  0  0
 10 12  1  0  0  0  0
 10 37  1  0  0  0  0
 10 38  1  0  0  0  0
 11 13  1  0  0  0  0
 11 39  1  0  0  0  0
 11 40  1  0  0  0  0
 12 13  1  0  0  0  0
 12 41  1  0  0  0  0
 12 42  1  0  0  0  0
 13 17  2  0  0  0  0
 14 43  1  0  0  0  0
 14 44  1  0  0  0  0
 15 16  1  0  0  0  0
 15 45  1  0  0  0  0
 15 46  1  0  0  0  0
 16 47  1  0  0  0  0
 16 48  1  0  0  0  0
 17 19  1  0  0  0  0
 17 20  1  0  0  0  0
 18 49  1  0  0  0  0
 18 50  1  0  0  0  0
 18 51  1  0  0  0  0
 19 21  2  0  0  0  0
 19 22  1  0  0  0  0
 20 23  2  0  0  0  0
 20 24  1  0  0  0  0
 21 25  1  0  0  0  0
 21 52  1  0  0  0  0
 22 26  2  0  0  0  0
 22 53  1  0  0  0  0
 23 27  1  0  0  0  0
 23 54  1  0  0  0  0
 24 28  2  0  0  0  0
 24 55  1  0  0  0  0
 25 29  2  0  0  0  0
 25 31  1  0  0  0  0
 26 29  1  0  0  0  0
 26 56  1  0  0  0  0
 27 30  2  0  0  0  0
 27 57  1  0  0  0  0
 28 30  1  0  0  0  0
 28 58  1  0  0  0  0
 29 59  1  0  0  0  0
 30 60  1  0  0  0  0
M  END
> <PUBCHEM_COMPOUND_CID>
57232718

> <PUBCHEM_CONFORMER_RMSD>
1

> <PUBCHEM_CONFORMER_DIVERSEORDER>
1
70
125
71
16
50
29
132
87
95
130
80
122
46
31
75
48
81
82
105
90
28
34
118
88
119
73
93
98
89
96
101
51
116
9
127
100
94
86
108
65
79
124
99
133
121
64
85
59
66
78
42
91
74
97
109
131
32
35
84
110
135
41
68
21
126
123
37
15
53
104
40
102
58
76
12
114
49
69
36
27
115
56
67
23
19
107
26
120
20
103
33
63
61
13
8
52
128
77
17
55
134
111
129
11
113
72
10
22
112
43
83
92
39
57
45
117
44
54
47
62
18
2
38
7
3
60
25
24
106
6
4
30
5
14

> <PUBCHEM_MMFF94_PARTIAL_CHARGES>
40
1 -0.46
10 0.27
11 0.14
12 0.14
13 -0.28
14 0.23
15 0.27
16 0.23
17 -0.06
18 0.27
19 0.03
2 -0.34
20 0.03
21 -0.15
22 -0.15
23 -0.15
24 -0.15
25 -0.14
26 -0.15
27 -0.15
28 -0.15
29 -0.15
3 -0.34
30 -0.15
31 1.16
4 -0.34
5 -0.81
52 0.15
53 0.15
54 0.15
55 0.15
56 0.15
57 0.15
58 0.15
59 0.15
6 -0.81
60 0.15
7 0.27
8 0.27
9 0.27

> <PUBCHEM_EFFECTIVE_ROTOR_COUNT>
7.2

> <PUBCHEM_PHARMACOPHORE_FEATURES>
6
1 5 cation
1 6 cation
6 1 6 7 14 15 16 rings
6 19 21 22 25 26 29 rings
6 20 23 24 27 28 30 rings
6 5 9 10 11 12 13 rings

> <PUBCHEM_HEAVY_ATOM_COUNT>
31

> <PUBCHEM_ATOM_DEF_STEREO_COUNT>
0

> <PUBCHEM_ATOM_UDEF_STEREO_COUNT>
1

> <PUBCHEM_BOND_DEF_STEREO_COUNT>
0

> <PUBCHEM_BOND_UDEF_STEREO_COUNT>
0

> <PUBCHEM_ISOTOPIC_ATOM_COUNT>
0

> <PUBCHEM_COMPONENT_COUNT>
1

> <PUBCHEM_CACTVS_TAUTO_COUNT>
1

> <PUBCHEM_CONFORMER_ID>
03694D4E00000001

> <PUBCHEM_MMFF94_ENERGY>
80.7512

> <PUBCHEM_FEATURE_SELFOVERLAP>
30.449

> <PUBCHEM_SHAPE_FINGERPRINT>
10169797 241 18040727977804414243
10319688 140 18410579487147235742
10554248 39 18340756088812188605
10721379 63 18340782489337943916
11059845 2 16912863055052300081
11062273 23 17255393822402111528
11135926 11 18265323096359709005
11181472 205 18411422813779543413
11621639 148 18411127045124739778
12107183 9 17985559849449033961
12160290 23 16890611031598376968
12422481 6 17702942531538301447
12730499 353 18115029735209663617
13150687 139 18193004935953145700
13533116 47 18411704305402730473
13782708 43 17749105583350122363
13955234 65 18411983589308037512
14863182 85 18270667771243562704
15250474 111 17986938830150955375
15324884 4 17766809790314482792
1577012 14 18201162148663760433
15799311 1 18272100447890297647
17844677 252 18040990727377847589
1813 80 18265048033742440018
18365409 1 17914883478207229566
20775438 99 18263357152421609307
21049683 271 18040716944751004036
21344244 246 18410866456309966076
21716022 299 17987539051798747380
2260408 40 18059285479170376632
23559900 14 18411696552168966319
239999 70 18114174259154183705
255183 451 18269563745362565598
34797466 226 16226050028997046061
38695281 34 18267021855226372240
44280117 145 17620768185475812878
44317340 157 9655578522474965081
46194498 28 18260264148580673028
54076057 127 18337124465770737665
5912855 24 18127976515366834111
6700243 42 17267531400112230126
70251023 43 18337400339572368152
9831232 110 18338516340492521807
9841814 1 18114455674301896290
9962374 69 18410847781281187099

> <PUBCHEM_SHAPE_MULTIPOLES>
610.03
15.22
5.56
1.96
36.63
0.8
0.08
3.72
0.23
-14.33
-2.26
-0.19
0.78
-1.24

> <PUBCHEM_SHAPE_SELFOVERLAP>
1288.125

> <PUBCHEM_SHAPE_VOLUME>
347.3

> <PUBCHEM_COORDINATE_TYPE>
2
5
10

$$$$
