6410685
  Mrv15b2304172506463D          

 42 43  0  0  0  0            999 V2000
   -1.5756    3.1445    0.2795 S   0  0  0  0  0  0  0  0  0  0  0  0
    0.1746    0.4003    0.1833 O   0  0  0  0  0  0  0  0  0  0  0  0
    0.7534    8.0046    1.0693 O   0  5  0  0  0  0  0  0  0  0  0  0
   -0.2123    6.2695    1.3413 O   0  0  0  0  0  0  0  0  0  0  0  0
    3.2505    0.3089    0.1566 N   0  0  1  0  0  0  0  0  0  0  0  0
   -3.4529    6.4564    1.4789 N   0  0  1  0  0  0  0  0  0  0  0  0
   -3.8320    8.6108    2.1729 N   0  0  0  0  0  0  0  0  0  0  0  0
   -0.3569    7.4271    1.3400 N   0  3  0  0  0  0  0  0  0  0  0  0
   -3.5773    9.8523    2.4863 N   0  0  0  0  0  0  0  0  0  0  0  0
    2.3296   -0.8394   -0.1358 C   0  0  2  0  0  0  0  0  0  0  0  0
    1.0025   -0.3689   -0.5628 C   0  0  0  0  0  0  0  0  0  0  0  0
   -0.9137    0.6726   -0.5803 C   0  0  0  0  0  0  0  0  0  0  0  0
   -2.0705    1.4589   -0.1435 C   0  0  2  0  0  0  0  0  0  0  0  0
    0.4301   -0.6021   -1.8069 C   0  0  0  0  0  0  0  0  0  0  0  0
   -3.1519    3.9651    0.6901 C   0  0  1  0  0  0  0  0  0  0  0  0
   -0.7757    0.0661   -1.8227 C   0  0  0  0  0  0  0  0  0  0  0  0
   -2.6923    5.4066    0.9021 C   0  0  1  0  0  0  0  0  0  0  0  0
    4.5679   -0.1147    0.6463 C   0  0  0  0  0  0  0  0  0  0  0  0
    3.5704    1.2259   -0.9575 C   0  0  0  0  0  0  0  0  0  0  0  0
   -2.8896    7.6947    1.7491 C   0  0  0  0  0  0  0  0  0  0  0  0
   -1.5129    8.1234    1.6545 C   0  0  0  0  0  0  0  0  0  0  0  0
   -1.2957    9.4926    1.9736 C   0  0  0  0  0  0  0  0  0  0  0  0
   -2.3203   10.3560    2.3983 C   0  0  0  0  0  0  0  0  0  0  0  0
    2.1550   -1.4509    0.7566 H   0  0  0  0  0  0  0  0  0  0  0  0
    2.7281   -1.5048   -0.9070 H   0  0  0  0  0  0  0  0  0  0  0  0
   -2.8254    1.5124   -0.9321 H   0  0  0  0  0  0  0  0  0  0  0  0
   -2.4916    0.9997    0.7495 H   0  0  0  0  0  0  0  0  0  0  0  0
    0.8321   -1.1352   -2.5789 H   0  0  0  0  0  0  0  0  0  0  0  0
   -3.8507    3.9012   -0.1488 H   0  0  0  0  0  0  0  0  0  0  0  0
   -3.5732    3.5019    1.5869 H   0  0  0  0  0  0  0  0  0  0  0  0
   -1.4409    0.1088   -2.5966 H   0  0  0  0  0  0  0  0  0  0  0  0
   -2.3328    5.7761   -0.0594 H   0  0  0  0  0  0  0  0  0  0  0  0
   -1.8133    5.3478    1.5440 H   0  0  0  0  0  0  0  0  0  0  0  0
    5.1839    0.7639    0.8381 H   0  0  0  0  0  0  0  0  0  0  0  0
    4.4473   -0.6823    1.5690 H   0  0  0  0  0  0  0  0  0  0  0  0
    5.0508   -0.7400   -0.1046 H   0  0  0  0  0  0  0  0  0  0  0  0
    4.2440    2.0063   -0.6038 H   0  0  0  0  0  0  0  0  0  0  0  0
    2.6519    1.6799   -1.3295 H   0  0  0  0  0  0  0  0  0  0  0  0
    4.0510    0.6677   -1.7609 H   0  0  0  0  0  0  0  0  0  0  0  0
   -4.2723    6.5771    0.9740 H   0  0  0  0  0  0  0  0  0  0  0  0
   -0.3655    9.9172    1.9436 H   0  0  0  0  0  0  0  0  0  0  0  0
   -2.1131   11.3339    2.6504 H   0  0  0  0  0  0  0  0  0  0  0  0
  1 13  1  0  0  0  0
  1 15  1  0  0  0  0
  2 11  1  0  0  0  0
  2 12  1  0  0  0  0
  3  8  1  0  0  0  0
  4  8  2  0  0  0  0
  5 10  1  0  0  0  0
  5 18  1  0  0  0  0
  5 19  1  0  0  0  0
  6 17  1  0  0  0  0
  6 20  1  0  0  0  0
  6 40  1  0  0  0  0
  7  9  2  0  0  0  0
  7 20  1  0  0  0  0
  8 21  1  0  0  0  0
  9 23  1  0  0  0  0
 10 11  1  0  0  0  0
 10 24  1  0  0  0  0
 10 25  1  0  0  0  0
 11 14  2  0  0  0  0
 12 13  1  0  0  0  0
 12 16  2  0  0  0  0
 13 26  1  0  0  0  0
 13 27  1  0  0  0  0
 14 16  1  0  0  0  0
 14 28  1  0  0  0  0
 15 17  1  0  0  0  0
 15 29  1  0  0  0  0
 15 30  1  0  0  0  0
 16 31  1  0  0  0  0
 17 32  1  0  0  0  0
 17 33  1  0  0  0  0
 18 34  1  0  0  0  0
 18 35  1  0  0  0  0
 18 36  1  0  0  0  0
 19 37  1  0  0  0  0
 19 38  1  0  0  0  0
 19 39  1  0  0  0  0
 20 21  2  0  0  0  0
 21 22  1  0  0  0  0
 22 23  2  0  0  0  0
 22 41  1  0  0  0  0
 23 42  1  0  0  0  0
M  CHG  2   3  -1   8   1
M  END
