@<TRIPOS>MOLECULE
lig
 42 43 0 0 0
SMALL
GASTEIGER

@<TRIPOS>ATOM
      1 S          -1.5756    3.1445    0.2795 S.3     1  UNL11      -0.1514
      2 O           0.1746    0.4003    0.1833 O.2     1  UNL11      -0.4624
      3 O           0.7534    8.0046    1.0693 O.co2   1  UNL11      -0.5759
      4 O          -0.2123    6.2695    1.3413 O.2     1  UNL11       0.0416
      5 N           3.2505    0.3089    0.1566 N.3     1  UNL11      -0.3013
      6 N          -3.4529    6.4564    1.4789 N.pl3   1  UNL11      -0.3215
      7 N          -3.8320    8.6108    2.1729 N.pl3   1  UNL11      -0.1274
      8 N          -0.3569    7.4271    1.3400 N.pl3   1  UNL11       0.0833
      9 N          -3.5773    9.8523    2.4863 N.pl3   1  UNL11      -0.1555
     10 C           2.3296   -0.8394   -0.1358 C.3     1  UNL11       0.0566
     11 C           1.0025   -0.3689   -0.5628 C.3     1  UNL11       0.1192
     12 C          -0.9137    0.6726   -0.5803 C.3     1  UNL11       0.1151
     13 C          -2.0705    1.4589   -0.1435 C.3     1  UNL11       0.0519
     14 C           0.4301   -0.6021   -1.8069 C.3     1  UNL11      -0.0191
     15 C          -3.1519    3.9651    0.6901 C.3     1  UNL11       0.0096
     16 C          -0.7757    0.0661   -1.8227 C.3     1  UNL11      -0.0196
     17 C          -2.6923    5.4066    0.9021 C.3     1  UNL11       0.0197
     18 C           4.5679   -0.1147    0.6463 C.3     1  UNL11      -0.0126
     19 C           3.5704    1.2259   -0.9575 C.3     1  UNL11      -0.0126
     20 C          -2.8896    7.6947    1.7491 C.3     1  UNL11       0.2190
     21 C          -1.5129    8.1234    1.6545 C.3     1  UNL11       0.3156
     22 C          -1.2957    9.4926    1.9736 C.3     1  UNL11       0.0390
     23 C          -2.3203   10.3560    2.3983 C.3     1  UNL11       0.0565
     24 H           2.1550   -1.4509    0.7566 H       1  UNL11       0.0506
     25 H           2.7281   -1.5048   -0.9070 H       1  UNL11       0.0506
     26 H          -2.8254    1.5124   -0.9321 H       1  UNL11       0.0456
     27 H          -2.4916    0.9997    0.7495 H       1  UNL11       0.0456
     28 H           0.8321   -1.1352   -2.5789 H       1  UNL11       0.0652
     29 H          -3.8507    3.9012   -0.1488 H       1  UNL11       0.0392
     30 H          -3.5732    3.5019    1.5869 H       1  UNL11       0.0392
     31 H          -1.4409    0.1088   -2.5966 H       1  UNL11       0.0652
     32 H          -2.3328    5.7761   -0.0594 H       1  UNL11       0.0470
     33 H          -1.8133    5.3478    1.5440 H       1  UNL11       0.0470
     34 H           5.1839    0.7639    0.8381 H       1  UNL11       0.0391
     35 H           4.4473   -0.6823    1.5690 H       1  UNL11       0.0391
     36 H           5.0508   -0.7400   -0.1046 H       1  UNL11       0.0391
     37 H           4.2440    2.0063   -0.6038 H       1  UNL11       0.0391
     38 H           2.6519    1.6799   -1.3295 H       1  UNL11       0.0391
     39 H           4.0510    0.6677   -1.7609 H       1  UNL11       0.0391
     40 H          -4.2723    6.5771    0.9740 H       1  UNL11       0.1477
     41 H          -0.3655    9.9172    1.9436 H       1  UNL11       0.0702
     42 H          -2.1131   11.3339    2.6504 H       1  UNL11       0.0850
@<TRIPOS>UNITY_ATOM_ATTR
3 1
charge -1
8 1
charge 1
@<TRIPOS>BOND
     1     1    13    1
     2     1    15    1
     3     2    11   ar
     4     2    12   ar
     5     3     8    1
     6     4     8    2
     7     5    10    1
     8     5    18    1
     9     5    19    1
    10     6    17    1
    11     6    20    1
    12     6    40    1
    13     7     9   ar
    14     7    20   ar
    15     8    21    1
    16     9    23   ar
    17    10    11    1
    18    10    24    1
    19    10    25    1
    20    11    14   ar
    21    12    13    1
    22    12    16   ar
    23    13    26    1
    24    13    27    1
    25    14    16   ar
    26    14    28    1
    27    15    17    1
    28    15    29    1
    29    15    30    1
    30    16    31    1
    31    17    32    1
    32    17    33    1
    33    18    34    1
    34    18    35    1
    35    18    36    1
    36    19    37    1
    37    19    38    1
    38    19    39    1
    39    20    21   ar
    40    21    22   ar
    41    22    23   ar
    42    22    41    1
    43    23    42    1
