6410685
  Mrv15b2304172506462D          

 42 43  0  0  0  0            999 V2000
    0.7355   -0.1689    0.0000 S   0  0  0  0  0  0  0  0  0  0  0  0
   -1.4471   -0.5044    0.0000 O   0  0  0  0  0  0  0  0  0  0  0  0
    5.0223   -1.8189    0.0000 O   0  5  0  0  0  0  0  0  0  0  0  0
    3.5934   -1.8189    0.0000 O   0  0  0  0  0  0  0  0  0  0  0  0
   -3.3045    0.6899    0.0000 N   0  0  0  0  0  0  0  0  0  0  0  0
    2.8789   -0.5814    0.0000 N   0  0  0  0  0  0  0  0  0  0  0  0
    3.5934    0.6561    0.0000 N   0  0  0  0  0  0  0  0  0  0  0  0
    4.3079   -1.4064    0.0000 N   0  3  0  0  0  0  0  0  0  0  0  0
    4.3079    1.0686    0.0000 N   0  0  0  0  0  0  0  0  0  0  0  0
   -2.8196    0.0224    0.0000 C   0  0  0  0  0  0  0  0  0  0  0  0
   -1.9991    0.1087    0.0000 C   0  0  0  0  0  0  0  0  0  0  0  0
   -0.6934   -0.1689    0.0000 C   0  0  0  0  0  0  0  0  0  0  0  0
    0.0210   -0.5814    0.0000 C   0  0  0  0  0  0  0  0  0  0  0  0
   -1.5866    0.8231    0.0000 C   0  0  0  0  0  0  0  0  0  0  0  0
    1.4500   -0.5814    0.0000 C   0  0  0  0  0  0  0  0  0  0  0  0
   -0.7797    0.6516    0.0000 C   0  0  0  0  0  0  0  0  0  0  0  0
    2.1645   -0.1689    0.0000 C   0  0  0  0  0  0  0  0  0  0  0  0
   -4.1250    0.6036    0.0000 C   0  0  0  0  0  0  0  0  0  0  0  0
   -2.9690    1.4435    0.0000 C   0  0  0  0  0  0  0  0  0  0  0  0
    3.5934   -0.1689    0.0000 C   0  0  0  0  0  0  0  0  0  0  0  0
    4.3079   -0.5814    0.0000 C   0  0  0  0  0  0  0  0  0  0  0  0
    5.0223   -0.1689    0.0000 C   0  0  0  0  0  0  0  0  0  0  0  0
    5.0223    0.6561    0.0000 C   0  0  0  0  0  0  0  0  0  0  0  0
   -3.4577   -0.5005    0.0000 H   0  0  0  0  0  0  0  0  0  0  0  0
   -2.7812   -0.8017    0.0000 H   0  0  0  0  0  0  0  0  0  0  0  0
   -0.3492   -1.3186    0.0000 H   0  0  0  0  0  0  0  0  0  0  0  0
    0.3913   -1.3186    0.0000 H   0  0  0  0  0  0  0  0  0  0  0  0
   -1.9222    1.5768    0.0000 H   0  0  0  0  0  0  0  0  0  0  0  0
    1.0797   -1.3186    0.0000 H   0  0  0  0  0  0  0  0  0  0  0  0
    1.8202   -1.3186    0.0000 H   0  0  0  0  0  0  0  0  0  0  0  0
   -0.1666    1.2036    0.0000 H   0  0  0  0  0  0  0  0  0  0  0  0
    2.5347    0.5684    0.0000 H   0  0  0  0  0  0  0  0  0  0  0  0
    1.7942    0.5684    0.0000 H   0  0  0  0  0  0  0  0  0  0  0  0
   -4.2113    1.4241    0.0000 H   0  0  0  0  0  0  0  0  0  0  0  0
   -4.9455    0.5174    0.0000 H   0  0  0  0  0  0  0  0  0  0  0  0
   -4.0388   -0.2169    0.0000 H   0  0  0  0  0  0  0  0  0  0  0  0
   -2.2153    1.1080    0.0000 H   0  0  0  0  0  0  0  0  0  0  0  0
   -2.6334    2.1972    0.0000 H   0  0  0  0  0  0  0  0  0  0  0  0
   -3.7227    1.7791    0.0000 H   0  0  0  0  0  0  0  0  0  0  0  0
    2.8789   -1.4064    0.0000 H   0  0  0  0  0  0  0  0  0  0  0  0
    5.7368   -0.5814    0.0000 H   0  0  0  0  0  0  0  0  0  0  0  0
    5.7368    1.0686    0.0000 H   0  0  0  0  0  0  0  0  0  0  0  0
  1 13  1  0  0  0  0
  1 15  1  0  0  0  0
  2 11  1  0  0  0  0
  2 12  1  0  0  0  0
  3  8  1  0  0  0  0
  4  8  2  0  0  0  0
  5 10  1  0  0  0  0
  5 18  1  0  0  0  0
  5 19  1  0  0  0  0
  6 17  1  0  0  0  0
  6 20  1  0  0  0  0
  6 40  1  0  0  0  0
  7  9  2  0  0  0  0
  7 20  1  0  0  0  0
  8 21  1  0  0  0  0
  9 23  1  0  0  0  0
 10 11  1  0  0  0  0
 10 24  1  0  0  0  0
 10 25  1  0  0  0  0
 11 14  2  0  0  0  0
 12 13  1  0  0  0  0
 12 16  2  0  0  0  0
 13 26  1  0  0  0  0
 13 27  1  0  0  0  0
 14 16  1  0  0  0  0
 14 28  1  0  0  0  0
 15 17  1  0  0  0  0
 15 29  1  0  0  0  0
 15 30  1  0  0  0  0
 16 31  1  0  0  0  0
 17 32  1  0  0  0  0
 17 33  1  0  0  0  0
 18 34  1  0  0  0  0
 18 35  1  0  0  0  0
 18 36  1  0  0  0  0
 19 37  1  0  0  0  0
 19 38  1  0  0  0  0
 19 39  1  0  0  0  0
 20 21  2  0  0  0  0
 21 22  1  0  0  0  0
 22 23  2  0  0  0  0
 22 41  1  0  0  0  0
 23 42  1  0  0  0  0
M  CHG  2   3  -1   8   1
M  END
