lig
 OpenBabel04172506463D

 42 43  0  0  0  0  0  0  0  0999 V2000
    0.5423   -1.6736   -0.0987 S   0  0  0  0  0  0  0  0  0  0  0  0
    3.7393   -0.5100    0.5310 O   0  0  0  0  0  0  0  0  0  0  0  0
   -3.2816    3.1409    0.3346 O   0  5  0  0  0  0  0  0  0  0  0  0
   -1.8620    1.5197    0.7534 O   0  0  0  0  0  0  0  0  0  0  0  0
    4.5850    2.1136    0.1555 N   0  0  0  0  0  0  0  0  0  0  0  0
   -2.4583   -0.8598    0.4378 N   0  0  0  0  0  0  0  0  0  0  0  0
   -4.6509   -1.3087   -0.3422 N   0  0  0  0  0  0  0  0  0  0  0  0
   -2.9898    1.9220    0.3803 N   0  3  0  0  0  0  0  0  0  0  0  0
   -5.8786   -0.8871   -0.7484 N   0  0  0  0  0  0  0  0  0  0  0  0
    5.5429    1.0113    0.0771 C   0  0  0  0  0  0  0  0  0  0  0  0
    4.8461   -0.2928   -0.1999 C   0  0  0  0  0  0  0  0  0  0  0  0
    3.2763   -1.7225    0.1285 C   0  0  0  0  0  0  0  0  0  0  0  0
    2.0524   -2.2019    0.7857 C   0  0  0  0  0  0  0  0  0  0  0  0
    5.1210   -1.3039   -1.0543 C   0  0  0  0  0  0  0  0  0  0  0  0
   -0.6705   -2.4420    0.9963 C   0  0  0  0  0  0  0  0  0  0  0  0
    4.0911   -2.2518   -0.8451 C   0  0  0  0  0  0  0  0  0  0  0  0
   -2.0987   -2.2572    0.4990 C   0  0  0  0  0  0  0  0  0  0  0  0
    3.8544    2.2464   -1.1044 C   0  0  0  0  0  0  0  0  0  0  0  0
    5.2697    3.3635    0.4836 C   0  0  0  0  0  0  0  0  0  0  0  0
   -3.7005   -0.4030    0.0284 C   0  0  0  0  0  0  0  0  0  0  0  0
   -3.9690    0.9658   -0.0025 C   0  0  0  0  0  0  0  0  0  0  0  0
   -5.2181    1.3947   -0.4160 C   0  0  0  0  0  0  0  0  0  0  0  0
   -6.1425    0.4363   -0.7798 C   0  0  0  0  0  0  0  0  0  0  0  0
    6.0695    0.9048    1.0339 H   0  0  0  0  0  0  0  0  0  0  0  0
    6.3017    1.1941   -0.6952 H   0  0  0  0  0  0  0  0  0  0  0  0
    2.0054   -1.8253    1.8131 H   0  0  0  0  0  0  0  0  0  0  0  0
    2.0629   -3.2961    0.8317 H   0  0  0  0  0  0  0  0  0  0  0  0
    5.9475   -1.3723   -1.7465 H   0  0  0  0  0  0  0  0  0  0  0  0
   -0.4549   -3.5130    1.0695 H   0  0  0  0  0  0  0  0  0  0  0  0
   -0.5665   -2.0036    1.9949 H   0  0  0  0  0  0  0  0  0  0  0  0
    3.9612   -3.2018   -1.3435 H   0  0  0  0  0  0  0  0  0  0  0  0
   -2.2151   -2.7228   -0.4877 H   0  0  0  0  0  0  0  0  0  0  0  0
   -2.7755   -2.7782    1.1871 H   0  0  0  0  0  0  0  0  0  0  0  0
    3.2085    1.3864   -1.3080 H   0  0  0  0  0  0  0  0  0  0  0  0
    4.5252    2.3904   -1.9598 H   0  0  0  0  0  0  0  0  0  0  0  0
    3.1805    3.1106   -1.0606 H   0  0  0  0  0  0  0  0  0  0  0  0
    4.5483    4.1812    0.5915 H   0  0  0  0  0  0  0  0  0  0  0  0
    6.0022    3.6481   -0.2806 H   0  0  0  0  0  0  0  0  0  0  0  0
    5.7896    3.2771    1.4444 H   0  0  0  0  0  0  0  0  0  0  0  0
   -1.6794   -0.2224    0.3156 H   0  0  0  0  0  0  0  0  0  0  0  0
   -5.4992    2.4415   -0.4659 H   0  0  0  0  0  0  0  0  0  0  0  0
   -7.1377    0.7075   -1.1124 H   0  0  0  0  0  0  0  0  0  0  0  0
  1 13  1  0  0  0  0
  1 15  1  0  0  0  0
  2 11  1  0  0  0  0
  2 12  1  0  0  0  0
  3  8  1  0  0  0  0
  4  8  2  0  0  0  0
  5 10  1  0  0  0  0
  5 18  1  0  0  0  0
  5 19  1  0  0  0  0
  6 17  1  0  0  0  0
  6 20  1  0  0  0  0
  6 40  1  0  0  0  0
  7  9  2  0  0  0  0
  7 20  1  0  0  0  0
  8 21  1  0  0  0  0
  9 23  1  0  0  0  0
 10 11  1  0  0  0  0
 10 24  1  0  0  0  0
 10 25  1  0  0  0  0
 11 14  2  0  0  0  0
 12 13  1  0  0  0  0
 12 16  2  0  0  0  0
 13 26  1  0  0  0  0
 13 27  1  0  0  0  0
 14 16  1  0  0  0  0
 14 28  1  0  0  0  0
 15 17  1  0  0  0  0
 15 29  1  0  0  0  0
 15 30  1  0  0  0  0
 16 31  1  0  0  0  0
 17 32  1  0  0  0  0
 17 33  1  0  0  0  0
 18 34  1  0  0  0  0
 18 35  1  0  0  0  0
 18 36  1  0  0  0  0
 19 37  1  0  0  0  0
 19 38  1  0  0  0  0
 19 39  1  0  0  0  0
 20 21  2  0  0  0  0
 21 22  1  0  0  0  0
 22 23  2  0  0  0  0
 22 41  1  0  0  0  0
 23 42  1  0  0  0  0
M  CHG  2   3  -1   8   1
M  END
