70606220
  -OEChem-04152518163D

 55 58  0     1  0  0  0  0  0999 V2000
   -0.3530   -2.4013    0.0055 S   0  0  0  0  0  0  0  0  0  0  0  0
   -4.8647   -0.7613    0.1728 S   0  0  0  0  0  0  0  0  0  0  0  0
    0.6014    1.2391    2.7348 O   0  0  0  0  0  0  0  0  0  0  0  0
    3.6126   -2.3002    0.1548 O   0  0  0  0  0  0  0  0  0  0  0  0
   -1.4913    2.6912    0.8415 O   0  0  0  0  0  0  0  0  0  0  0  0
   -3.1758    1.5229    1.8553 O   0  0  0  0  0  0  0  0  0  0  0  0
   -0.2974    0.1078    0.8713 N   0  0  0  0  0  0  0  0  0  0  0  0
    2.8956   -0.3080    1.1015 N   0  0  0  0  0  0  0  0  0  0  0  0
    5.1158    0.7663   -0.4790 N   0  0  0  0  0  0  0  0  0  0  0  0
   -7.6278   -0.5952   -0.1582 N   0  0  0  0  0  0  0  0  0  0  0  0
   -6.5351    0.4529   -1.7107 N   0  0  0  0  0  0  0  0  0  0  0  0
   -8.5669   -0.0817   -0.9649 N   0  0  0  0  0  0  0  0  0  0  0  0
   -7.8928    0.5586   -1.9124 N   0  0  0  0  0  0  0  0  0  0  0  0
    0.5429   -0.8396    0.1617 C   0  0  1  0  0  0  0  0  0  0  0  0
    1.5164   -0.7230    1.3551 C   0  0  2  0  0  0  0  0  0  0  0  0
    0.5928    0.4333    1.8337 C   0  0  0  0  0  0  0  0  0  0  0  0
   -1.5663    0.4173    0.4998 C   0  0  0  0  0  0  0  0  0  0  0  0
   -2.2498   -0.3461   -0.3858 C   0  0  0  0  0  0  0  0  0  0  0  0
   -1.7099   -1.6541   -0.9597 C   0  0  0  0  0  0  0  0  0  0  0  0
    5.2185   -0.4891    0.3702 C   0  0  1  0  0  0  0  0  0  0  0  0
    3.8430   -1.1467    0.5127 C   0  0  0  0  0  0  0  0  0  0  0  0
    6.2491   -1.4979   -0.1799 C   0  0  0  0  0  0  0  0  0  0  0  0
   -3.6291   -0.0246   -0.9094 C   0  0  0  0  0  0  0  0  0  0  0  0
   -2.1877    1.5799    1.1513 C   0  0  0  0  0  0  0  0  0  0  0  0
    7.6502   -0.8962   -0.3301 C   0  0  0  0  0  0  0  0  0  0  0  0
    5.3855    2.0381   -0.0452 C   0  0  0  0  0  0  0  0  0  0  0  0
    4.7387    0.8008   -1.7960 C   0  0  0  0  0  0  0  0  0  0  0  0
    8.6403   -1.9227   -0.8586 C   0  0  0  0  0  0  0  0  0  0  0  0
    5.1765    2.8974   -1.1011 C   0  0  0  0  0  0  0  0  0  0  0  0
    4.7675    2.1145   -2.2090 C   0  0  0  0  0  0  0  0  0  0  0  0
   -6.3937   -0.2648   -0.6202 C   0  0  0  0  0  0  0  0  0  0  0  0
   -8.0055   -1.3678    0.9982 C   0  0  0  0  0  0  0  0  0  0  0  0
    0.9299   -0.4343   -0.7813 H   0  0  0  0  0  0  0  0  0  0  0  0
    1.4958   -1.5621    2.0637 H   0  0  0  0  0  0  0  0  0  0  0  0
    3.1963    0.6225    1.3817 H   0  0  0  0  0  0  0  0  0  0  0  0
   -2.5025   -2.4083   -0.9999 H   0  0  0  0  0  0  0  0  0  0  0  0
   -1.3624   -1.4833   -1.9846 H   0  0  0  0  0  0  0  0  0  0  0  0
    5.5361   -0.1416    1.3619 H   0  0  0  0  0  0  0  0  0  0  0  0
    5.9179   -1.8804   -1.1541 H   0  0  0  0  0  0  0  0  0  0  0  0
    6.2977   -2.3638    0.4929 H   0  0  0  0  0  0  0  0  0  0  0  0
   -3.7478   -0.3973   -1.9332 H   0  0  0  0  0  0  0  0  0  0  0  0
   -3.7842    1.0591   -0.9540 H   0  0  0  0  0  0  0  0  0  0  0  0
    7.9988   -0.5236    0.6399 H   0  0  0  0  0  0  0  0  0  0  0  0
    7.6349   -0.0457   -1.0197 H   0  0  0  0  0  0  0  0  0  0  0  0
    5.7014    2.2287    0.9715 H   0  0  0  0  0  0  0  0  0  0  0  0
    4.4798   -0.1034   -2.3301 H   0  0  0  0  0  0  0  0  0  0  0  0
    8.3358   -2.2904   -1.8437 H   0  0  0  0  0  0  0  0  0  0  0  0
    8.7175   -2.7786   -0.1805 H   0  0  0  0  0  0  0  0  0  0  0  0
    9.6346   -1.4755   -0.9552 H   0  0  0  0  0  0  0  0  0  0  0  0
    5.3050    3.9703   -1.0750 H   0  0  0  0  0  0  0  0  0  0  0  0
    4.5200    2.4688   -3.1997 H   0  0  0  0  0  0  0  0  0  0  0  0
   -1.8728    3.4938    1.2570 H   0  0  0  0  0  0  0  0  0  0  0  0
   -7.5891   -2.3727    0.8957 H   0  0  0  0  0  0  0  0  0  0  0  0
   -9.0956   -1.4251    1.0594 H   0  0  0  0  0  0  0  0  0  0  0  0
   -7.6123   -0.8735    1.8899 H   0  0  0  0  0  0  0  0  0  0  0  0
  1 14  1  0  0  0  0
  1 19  1  0  0  0  0
  2 23  1  0  0  0  0
  2 31  1  0  0  0  0
  3 16  2  0  0  0  0
  4 21  2  0  0  0  0
  5 24  1  0  0  0  0
  5 52  1  0  0  0  0
  6 24  2  0  0  0  0
  7 14  1  0  0  0  0
  7 16  1  0  0  0  0
  7 17  1  0  0  0  0
  8 15  1  0  0  0  0
  8 21  1  0  0  0  0
  8 35  1  0  0  0  0
  9 20  1  0  0  0  0
  9 26  1  0  0  0  0
  9 27  1  0  0  0  0
 10 12  1  0  0  0  0
 10 31  1  0  0  0  0
 10 32  1  0  0  0  0
 11 13  1  0  0  0  0
 11 31  2  0  0  0  0
 12 13  2  0  0  0  0
 14 15  1  0  0  0  0
 14 33  1  0  0  0  0
 15 16  1  0  0  0  0
 15 34  1  0  0  0  0
 17 18  2  0  0  0  0
 17 24  1  0  0  0  0
 18 19  1  0  0  0  0
 18 23  1  0  0  0  0
 19 36  1  0  0  0  0
 19 37  1  0  0  0  0
 20 21  1  0  0  0  0
 20 22  1  0  0  0  0
 20 38  1  0  0  0  0
 22 25  1  0  0  0  0
 22 39  1  0  0  0  0
 22 40  1  0  0  0  0
 23 41  1  0  0  0  0
 23 42  1  0  0  0  0
 25 28  1  0  0  0  0
 25 43  1  0  0  0  0
 25 44  1  0  0  0  0
 26 29  2  0  0  0  0
 26 45  1  0  0  0  0
 27 30  2  0  0  0  0
 27 46  1  0  0  0  0
 28 47  1  0  0  0  0
 28 48  1  0  0  0  0
 28 49  1  0  0  0  0
 29 30  1  0  0  0  0
 29 50  1  0  0  0  0
 30 51  1  0  0  0  0
 32 53  1  0  0  0  0
 32 54  1  0  0  0  0
 32 55  1  0  0  0  0
M  END
> <PUBCHEM_COMPOUND_CID>
70606220

> <PUBCHEM_CONFORMER_RMSD>
1.2

> <PUBCHEM_CONFORMER_DIVERSEORDER>
1
417
190
349
80
429
44
490
365
427
511
246
95
122
293
371
52
94
96
238
67
320
237
240
332
363
62
357
7
149
344
40
187
434
160
90
142
72
385
281
10
268
247
366
92
15
245
348
125
337
21
483
273
330
253
379
64
436
305
13
4
340
422
87
51
333
312
6
208
501
38
106
58
323
49
461
113
14
478
120
252
428
178
232
458
280
42
50
130
459
153
512
454
119
287
387
355
444
158
226
274
121
224
112
468
41
276
123
88
294
243
165
31
370
192
57
20
184
66
133
499
124
73
269
302
27
30
3
2
68
317
388
319
157
486
231
5
452
99
447
16
8
76
28
39
307
78
299
239
17
147
356
101
56
25
9
140
488
63
29
186
117
12
168
316
19
82
83
35
284

> <PUBCHEM_MMFF94_PARTIAL_CHARGES>
34
1 -0.45
10 0.31
11 -0.34
12 -0.42
14 0.44
15 0.28
16 0.58
17 0.12
18 -0.28
19 0.37
2 -0.29
20 0.32
21 0.57
23 0.37
24 0.71
26 -0.3
27 -0.3
29 -0.15
3 -0.57
30 -0.15
31 0.24
32 0.26
35 0.37
4 -0.57
45 0.15
46 0.15
5 -0.65
50 0.15
51 0.15
52 0.5
6 -0.57
7 -0.39
8 -0.65
9 0.05

> <PUBCHEM_EFFECTIVE_ROTOR_COUNT>
10.6

> <PUBCHEM_PHARMACOPHORE_FEATURES>
13
1 28 hydrophobe
1 3 acceptor
1 4 acceptor
1 5 acceptor
1 6 acceptor
1 8 donor
1 9 cation
3 10 11 31 cation
3 5 6 24 anion
4 7 14 15 16 rings
5 10 11 12 13 31 rings
5 9 26 27 29 30 rings
6 1 7 14 17 18 19 rings

> <PUBCHEM_HEAVY_ATOM_COUNT>
32

> <PUBCHEM_ATOM_DEF_STEREO_COUNT>
0

> <PUBCHEM_ATOM_UDEF_STEREO_COUNT>
3

> <PUBCHEM_BOND_DEF_STEREO_COUNT>
0

> <PUBCHEM_BOND_UDEF_STEREO_COUNT>
0

> <PUBCHEM_ISOTOPIC_ATOM_COUNT>
0

> <PUBCHEM_COMPONENT_COUNT>
1

> <PUBCHEM_CACTVS_TAUTO_COUNT>
4

> <PUBCHEM_CONFORMER_ID>
04355D8C00000001

> <PUBCHEM_MMFF94_ENERGY>
61.7791

> <PUBCHEM_FEATURE_SELFOVERLAP>
66.285

> <PUBCHEM_SHAPE_FINGERPRINT>
10 15 11025798682662552819
10076449 9 17561362868193257962
10673678 19 18187930624405691174
11135609 187 17972040498691430492
12166972 35 18341898468592850688
13617811 41 17917712409397028717
13782708 43 14333406774993474197
150020 25 17821731641240585803
15131766 46 17534068746596887844
15183329 4 17060625529181773221
15475509 8 16558761126258997281
15840311 113 18040716999725249469
16994733 274 17022894671316056685
18335252 114 18260266344084304276
19301679 30 12607418658959847354
19319366 153 18412255130026080878
20554085 129 14851601085572327360
21033648 29 15502659351751347132
21267235 1 17704349952912179523
21792961 116 18343018852649004547
21792965 169 18341908402150417534
22224240 67 13479134579377504491
23522609 53 17916329211032409825
249057 3 18407760344367362462
3004659 81 18342172255277654786
34797466 226 18040433287361013047
44317340 157 18260827141794918934
5265222 85 18040714823100554659
5758199 1 14779545665256979139
9831232 110 14979962475546208333

> <PUBCHEM_SHAPE_MULTIPOLES>
607.9
24.39
2.46
1.82
18.04
0.86
-0.39
-3.64
11.71
-3.97
0.34
0.7
0.89
-0.57

> <PUBCHEM_SHAPE_SELFOVERLAP>
1257.443

> <PUBCHEM_SHAPE_VOLUME>
349.4

> <PUBCHEM_COORDINATE_TYPE>
2
5
10

$$$$
