161215786
  MJ221101                      

 60 61  0  0  0  0  0  0  0  0999 V2000
   -1.6076    2.4905    0.0000 O   0  0  0  0  0  0  0  0  0  0  0  0
   -0.1787    2.4905    0.0000 O   0  0  0  0  0  0  0  0  0  0  0  0
   -0.1787   -3.2845    0.0000 O   0  0  0  0  0  0  0  0  0  0  0  0
    1.9648   -2.0470    0.0000 O   0  0  0  0  0  0  0  0  0  0  0  0
   -0.1787    0.8405    0.0000 N   0  3  0  0  0  0  0  0  0  0  0  0
   -0.8931    1.2529    0.0000 C   0  0  0  0  0  0  0  0  0  0  0  0
    0.5358    0.4280    0.0000 C   0  0  0  0  0  0  0  0  0  0  0  0
   -0.5911    0.1261    0.0000 C   0  0  0  0  0  0  0  0  0  0  0  0
    0.2338    1.5549    0.0000 C   0  0  0  0  0  0  0  0  0  0  0  0
   -0.8931    2.0780    0.0000 C   0  0  0  0  0  0  0  0  0  0  0  0
    0.5358   -0.3970    0.0000 C   0  0  0  0  0  0  0  0  0  0  0  0
    1.2503   -0.8095    0.0000 C   0  0  0  0  0  0  0  0  0  0  0  0
   -0.1787   -0.8095    0.0000 C   0  0  0  0  0  0  0  0  0  0  0  0
    1.2503   -1.6345    0.0000 C   0  0  0  0  0  0  0  0  0  0  0  0
   -0.1787   -1.6345    0.0000 C   0  0  0  0  0  0  0  0  0  0  0  0
   -1.6076    3.3155    0.0000 C   0  0  0  0  0  0  0  0  0  0  0  0
   -0.1787    3.3155    0.0000 C   0  0  0  0  0  0  0  0  0  0  0  0
    0.5358   -2.0470    0.0000 C   0  0  0  0  0  0  0  0  0  0  0  0
   -2.3221    3.7280    0.0000 C   0  0  0  0  0  0  0  0  0  0  0  0
    0.5358    3.7280    0.0000 C   0  0  0  0  0  0  0  0  0  0  0  0
    0.5358   -2.8720    0.0000 C   0  0  0  0  0  0  0  0  0  0  0  0
    1.2503   -3.2845    0.0000 C   0  0  0  0  0  0  0  0  0  0  0  0
    1.9648   -2.8720    0.0000 C   0  0  0  0  0  0  0  0  0  0  0  0
    1.2503   -4.1095    0.0000 C   0  0  0  0  0  0  0  0  0  0  0  0
    2.6791   -3.2845    0.0000 C   0  0  0  0  0  0  0  0  0  0  0  0
    2.6791   -4.1095    0.0000 C   0  0  0  0  0  0  0  0  0  0  0  0
    1.9648   -4.5220    0.0000 C   0  0  0  0  0  0  0  0  0  0  0  0
    3.3937   -4.5220    0.0000 C   0  0  0  0  0  0  0  0  0  0  0  0
   -1.7167    1.2051    0.0000 H   0  0  0  0  0  0  0  0  0  0  0  0
   -1.3465    0.5637    0.0000 H   0  0  0  0  0  0  0  0  0  0  0  0
    1.3594    0.4760    0.0000 H   0  0  0  0  0  0  0  0  0  0  0  0
    0.9892    1.1173    0.0000 H   0  0  0  0  0  0  0  0  0  0  0  0
   -1.2463   -0.3754    0.0000 H   0  0  0  0  0  0  0  0  0  0  0  0
   -0.3783   -0.6710    0.0000 H   0  0  0  0  0  0  0  0  0  0  0  0
    0.2267    0.0180    0.0000 H   0  0  0  0  0  0  0  0  0  0  0  0
    0.8890    2.0564    0.0000 H   0  0  0  0  0  0  0  0  0  0  0  0
    0.0210    2.3521    0.0000 H   0  0  0  0  0  0  0  0  0  0  0  0
   -0.5840    1.6630    0.0000 H   0  0  0  0  0  0  0  0  0  0  0  0
   -0.8931    2.9030    0.0000 H   0  0  0  0  0  0  0  0  0  0  0  0
    1.9648   -0.3970    0.0000 H   0  0  0  0  0  0  0  0  0  0  0  0
   -0.9096   -1.1920    0.0000 H   0  0  0  0  0  0  0  0  0  0  0  0
    1.2503   -2.4594    0.0000 H   0  0  0  0  0  0  0  0  0  0  0  0
   -0.5985   -2.3445    0.0000 H   0  0  0  0  0  0  0  0  0  0  0  0
   -0.9756    3.8458    0.0000 H   0  0  0  0  0  0  0  0  0  0  0  0
   -1.4643    4.1280    0.0000 H   0  0  0  0  0  0  0  0  0  0  0  0
    0.5358    2.9030    0.0000 H   0  0  0  0  0  0  0  0  0  0  0  0
   -0.1525    4.1401    0.0000 H   0  0  0  0  0  0  0  0  0  0  0  0
   -2.4830    4.5372    0.0000 H   0  0  0  0  0  0  0  0  0  0  0  0
   -3.1463    3.7640    0.0000 H   0  0  0  0  0  0  0  0  0  0  0  0
   -2.5529    2.9360    0.0000 H   0  0  0  0  0  0  0  0  0  0  0  0
    1.2486    3.3127    0.0000 H   0  0  0  0  0  0  0  0  0  0  0  0
    1.2535    4.1348    0.0000 H   0  0  0  0  0  0  0  0  0  0  0  0
    0.5456    4.5530    0.0000 H   0  0  0  0  0  0  0  0  0  0  0  0
    0.5358   -4.5220    0.0000 H   0  0  0  0  0  0  0  0  0  0  0  0
    3.3937   -2.8720    0.0000 H   0  0  0  0  0  0  0  0  0  0  0  0
    1.9648   -5.3470    0.0000 H   0  0  0  0  0  0  0  0  0  0  0  0
    2.9812   -5.2364    0.0000 H   0  0  0  0  0  0  0  0  0  0  0  0
    4.1082   -4.9345    0.0000 H   0  0  0  0  0  0  0  0  0  0  0  0
    3.8062   -3.8075    0.0000 H   0  0  0  0  0  0  0  0  0  0  0  0
    2.6791   -1.6345    0.0000 H   0  0  0  0  0  0  0  0  0  0  0  0
  1 10  1  0  0  0  0
  1 16  1  0  0  0  0
  2 10  1  0  0  0  0
  2 17  1  0  0  0  0
  3 21  2  0  0  0  0
  4 23  1  0  0  0  0
  4 60  1  0  0  0  0
  5  6  1  0  0  0  0
  5  7  1  0  0  0  0
  5  8  1  0  0  0  0
  5  9  1  0  0  0  0
  6 10  1  0  0  0  0
  6 29  1  0  0  0  0
  6 30  1  0  0  0  0
  7 11  1  0  0  0  0
  7 31  1  0  0  0  0
  7 32  1  0  0  0  0
  8 33  1  0  0  0  0
  8 34  1  0  0  0  0
  8 35  1  0  0  0  0
  9 36  1  0  0  0  0
  9 37  1  0  0  0  0
  9 38  1  0  0  0  0
 10 39  1  0  0  0  0
 11 12  2  0  0  0  0
 11 13  1  0  0  0  0
 12 14  1  0  0  0  0
 12 40  1  0  0  0  0
 13 15  2  0  0  0  0
 13 41  1  0  0  0  0
 14 18  2  0  0  0  0
 14 42  1  0  0  0  0
 15 18  1  0  0  0  0
 15 43  1  0  0  0  0
 16 19  1  0  0  0  0
 16 44  1  0  0  0  0
 16 45  1  0  0  0  0
 17 20  1  0  0  0  0
 17 46  1  0  0  0  0
 17 47  1  0  0  0  0
 18 21  1  0  0  0  0
 19 48  1  0  0  0  0
 19 49  1  0  0  0  0
 19 50  1  0  0  0  0
 20 51  1  0  0  0  0
 20 52  1  0  0  0  0
 20 53  1  0  0  0  0
 21 22  1  0  0  0  0
 22 23  2  0  0  0  0
 22 24  1  0  0  0  0
 23 25  1  0  0  0  0
 24 27  2  0  0  0  0
 24 54  1  0  0  0  0
 25 26  2  0  0  0  0
 25 55  1  0  0  0  0
 26 27  1  0  0  0  0
 26 28  1  0  0  0  0
 27 56  1  0  0  0  0
 28 57  1  0  0  0  0
 28 58  1  0  0  0  0
 28 59  1  0  0  0  0
M  END
