@<TRIPOS>MOLECULE
lig
 60 61 0 0 0
SMALL
GASTEIGER

@<TRIPOS>ATOM
      1 O          -1.2628   -5.3108   -2.4846 O.3     1  UNL11      -0.3470
      2 O           0.6688   -4.6848   -3.6045 O.3     1  UNL11      -0.3470
      3 O           6.0546    2.3947   -2.2157 O.2     1  UNL11      -0.2865
      4 O           6.4817    4.9123   -2.8386 O.2     1  UNL11      -0.5060
      5 N           0.9950   -2.4627   -1.8707 N.4     1  UNL11       0.2458
      6 C           0.1231   -3.5859   -1.5308 C.3     1  UNL11       0.0221
      7 C           1.5100   -1.8569   -0.6438 C.3     1  UNL11      -0.0045
      8 C           0.2352   -1.4666   -2.6243 C.3     1  UNL11      -0.0410
      9 C           2.1117   -2.9413   -2.6838 C.3     1  UNL11      -0.0410
     10 C          -0.4159   -4.2199   -2.8147 C.3     1  UNL11       0.1997
     11 C           2.3928   -0.7197   -0.9879 C.3     1  UNL11      -0.0028
     12 C           2.0818    0.5768   -0.5322 C.3     1  UNL11      -0.0529
     13 C           3.5680   -0.9186   -1.7528 C.3     1  UNL11      -0.0529
     14 C           2.9861    1.6248   -0.7405 C.3     1  UNL11      -0.0505
     15 C           4.3982    0.1693   -2.0779 C.3     1  UNL11      -0.0505
     16 C          -1.7630   -5.8992   -3.6762 C.3     1  UNL11       0.0480
     17 C           1.4068   -5.6523   -2.8725 C.3     1  UNL11       0.0480
     18 C           4.0946    1.4791   -1.6116 C.3     1  UNL11       0.0224
     19 C          -2.6755   -7.0747   -3.3205 C.3     1  UNL11      -0.0415
     20 C           2.5754   -6.1532   -3.7235 C.3     1  UNL11      -0.0415
     21 C           4.8305    2.5970   -2.0706 C.2     1  UNL11       0.1966
     22 C           4.2899    3.8976   -2.3912 C.3     1  UNL11       0.0636
     23 C           5.1382    5.0083   -2.7090 C.3     1  UNL11       0.1279
     24 C           2.8678    4.1228   -2.3913 C.3     1  UNL11      -0.0471
     25 C           4.6017    6.3120   -2.8594 C.3     1  UNL11      -0.0166
     26 C           3.2046    6.5066   -2.7671 C.3     1  UNL11      -0.0470
     27 C           2.3381    5.4191   -2.5318 C.3     1  UNL11      -0.0579
     28 C           2.6009    7.8234   -2.9590 C.3     1  UNL11      -0.0396
     29 H          -0.7095   -3.2291   -0.9245 H       1  UNL11       0.0865
     30 H           0.6895   -4.3286   -0.9689 H       1  UNL11       0.0865
     31 H           0.6774   -1.5000   -0.0375 H       1  UNL11       0.0868
     32 H           2.0765   -2.5995   -0.0819 H       1  UNL11       0.0868
     33 H           0.8853   -0.6292   -2.8777 H       1  UNL11       0.0778
     34 H          -0.5974   -1.1097   -2.0180 H       1  UNL11       0.0778
     35 H          -0.1488   -1.9183   -3.5390 H       1  UNL11       0.0778
     36 H           2.7618   -2.1039   -2.9372 H       1  UNL11       0.0778
     37 H           1.7278   -3.3930   -3.5985 H       1  UNL11       0.0778
     38 H           2.6782   -3.6840   -2.1219 H       1  UNL11       0.0778
     39 H          -0.9824   -3.4773   -3.3766 H       1  UNL11       0.0966
     40 H           1.1932    0.7947   -0.0453 H       1  UNL11       0.0622
     41 H           3.8811   -1.8567   -2.0669 H       1  UNL11       0.0622
     42 H           2.7931    2.5324   -0.3077 H       1  UNL11       0.0625
     43 H           5.2152    0.0068   -2.6882 H       1  UNL11       0.0625
     44 H          -2.3295   -5.1566   -4.2381 H       1  UNL11       0.0558
     45 H          -0.9304   -6.2561   -4.2825 H       1  UNL11       0.0558
     46 H           0.7567   -6.4897   -2.6191 H       1  UNL11       0.0558
     47 H           1.7907   -5.2006   -1.9578 H       1  UNL11       0.0558
     48 H          -3.0594   -7.5264   -4.2352 H       1  UNL11       0.0252
     49 H          -3.5081   -6.7178   -2.7143 H       1  UNL11       0.0252
     50 H          -2.1090   -7.8173   -2.7586 H       1  UNL11       0.0252
     51 H           3.1419   -6.8958   -3.1616 H       1  UNL11       0.0252
     52 H           2.1915   -6.6048   -4.6382 H       1  UNL11       0.0252
     53 H           3.2255   -5.3158   -3.9769 H       1  UNL11       0.0252
     54 H           2.1569    3.3890   -2.3076 H       1  UNL11       0.0626
     55 H           5.2199    7.1045   -3.0331 H       1  UNL11       0.0657
     56 H           1.3318    5.5713   -2.4638 H       1  UNL11       0.0620
     57 H           2.8360    8.1887   -3.9587 H       1  UNL11       0.0278
     58 H           1.5196    7.7475   -2.8449 H       1  UNL11       0.0278
     59 H           2.9968    8.5163   -2.2165 H       1  UNL11       0.0278
     60 H           6.8526    5.7927   -3.0571 H       1  UNL11       0.2922
@<TRIPOS>UNITY_ATOM_ATTR
5 1
charge 1
@<TRIPOS>BOND
     1     1    10    1
     2     1    16    1
     3     2    10    1
     4     2    17    1
     5     3    21    2
     6     4    23    1
     7     4    60    1
     8     5     6    1
     9     5     7    1
    10     5     8    1
    11     5     9    1
    12     6    10    1
    13     6    29    1
    14     6    30    1
    15     7    11    1
    16     7    31    1
    17     7    32    1
    18     8    33    1
    19     8    34    1
    20     8    35    1
    21     9    36    1
    22     9    37    1
    23     9    38    1
    24    10    39    1
    25    11    12   ar
    26    11    13   ar
    27    12    14   ar
    28    12    40    1
    29    13    15   ar
    30    13    41    1
    31    14    18   ar
    32    14    42    1
    33    15    18   ar
    34    15    43    1
    35    16    19    1
    36    16    44    1
    37    16    45    1
    38    17    20    1
    39    17    46    1
    40    17    47    1
    41    18    21    1
    42    19    48    1
    43    19    49    1
    44    19    50    1
    45    20    51    1
    46    20    52    1
    47    20    53    1
    48    21    22    1
    49    22    23   ar
    50    22    24   ar
    51    23    25   ar
    52    24    27   ar
    53    24    54    1
    54    25    26   ar
    55    25    55    1
    56    26    27   ar
    57    26    28    1
    58    27    56    1
    59    28    57    1
    60    28    58    1
    61    28    59    1
