161215786
  Mrv15b2304172506393D          

 60 61  0  0  0  0            999 V2000
   -1.2628   -5.3108   -2.4846 O   0  0  0  0  0  0  0  0  0  0  0  0
    0.6688   -4.6848   -3.6045 O   0  0  0  0  0  0  0  0  0  0  0  0
    6.0546    2.3947   -2.2157 O   0  0  0  0  0  0  0  0  0  0  0  0
    6.4817    4.9123   -2.8386 O   0  0  0  0  0  0  0  0  0  0  0  0
    0.9950   -2.4627   -1.8707 N   0  3  2  0  0  0  0  0  0  0  0  0
    0.1231   -3.5859   -1.5308 C   0  0  2  0  0  0  0  0  0  0  0  0
    1.5100   -1.8569   -0.6438 C   0  0  1  0  0  0  0  0  0  0  0  0
    0.2352   -1.4666   -2.6243 C   0  0  0  0  0  0  0  0  0  0  0  0
    2.1117   -2.9413   -2.6838 C   0  0  0  0  0  0  0  0  0  0  0  0
   -0.4159   -4.2199   -2.8147 C   0  0  2  0  0  0  0  0  0  0  0  0
    2.3928   -0.7197   -0.9879 C   0  0  0  0  0  0  0  0  0  0  0  0
    2.0818    0.5768   -0.5322 C   0  0  0  0  0  0  0  0  0  0  0  0
    3.5680   -0.9186   -1.7528 C   0  0  0  0  0  0  0  0  0  0  0  0
    2.9861    1.6248   -0.7405 C   0  0  0  0  0  0  0  0  0  0  0  0
    4.3982    0.1693   -2.0779 C   0  0  0  0  0  0  0  0  0  0  0  0
   -1.7630   -5.8992   -3.6762 C   0  0  1  0  0  0  0  0  0  0  0  0
    1.4068   -5.6523   -2.8725 C   0  0  2  0  0  0  0  0  0  0  0  0
    4.0946    1.4791   -1.6116 C   0  0  0  0  0  0  0  0  0  0  0  0
   -2.6755   -7.0747   -3.3205 C   0  0  0  0  0  0  0  0  0  0  0  0
    2.5754   -6.1532   -3.7235 C   0  0  0  0  0  0  0  0  0  0  0  0
    4.8305    2.5970   -2.0706 C   0  0  0  0  0  0  0  0  0  0  0  0
    4.2899    3.8976   -2.3912 C   0  0  0  0  0  0  0  0  0  0  0  0
    5.1382    5.0083   -2.7090 C   0  0  0  0  0  0  0  0  0  0  0  0
    2.8678    4.1228   -2.3913 C   0  0  0  0  0  0  0  0  0  0  0  0
    4.6017    6.3120   -2.8594 C   0  0  0  0  0  0  0  0  0  0  0  0
    3.2046    6.5066   -2.7671 C   0  0  0  0  0  0  0  0  0  0  0  0
    2.3381    5.4191   -2.5318 C   0  0  0  0  0  0  0  0  0  0  0  0
    2.6009    7.8234   -2.9590 C   0  0  0  0  0  0  0  0  0  0  0  0
   -0.7095   -3.2291   -0.9245 H   0  0  0  0  0  0  0  0  0  0  0  0
    0.6895   -4.3286   -0.9689 H   0  0  0  0  0  0  0  0  0  0  0  0
    0.6774   -1.5000   -0.0375 H   0  0  0  0  0  0  0  0  0  0  0  0
    2.0765   -2.5995   -0.0819 H   0  0  0  0  0  0  0  0  0  0  0  0
    0.8853   -0.6292   -2.8777 H   0  0  0  0  0  0  0  0  0  0  0  0
   -0.5974   -1.1097   -2.0180 H   0  0  0  0  0  0  0  0  0  0  0  0
   -0.1488   -1.9183   -3.5390 H   0  0  0  0  0  0  0  0  0  0  0  0
    2.7618   -2.1039   -2.9372 H   0  0  0  0  0  0  0  0  0  0  0  0
    1.7278   -3.3930   -3.5985 H   0  0  0  0  0  0  0  0  0  0  0  0
    2.6782   -3.6840   -2.1219 H   0  0  0  0  0  0  0  0  0  0  0  0
   -0.9824   -3.4773   -3.3766 H   0  0  0  0  0  0  0  0  0  0  0  0
    1.1932    0.7947   -0.0453 H   0  0  0  0  0  0  0  0  0  0  0  0
    3.8811   -1.8567   -2.0669 H   0  0  0  0  0  0  0  0  0  0  0  0
    2.7931    2.5324   -0.3077 H   0  0  0  0  0  0  0  0  0  0  0  0
    5.2152    0.0068   -2.6882 H   0  0  0  0  0  0  0  0  0  0  0  0
   -2.3295   -5.1566   -4.2381 H   0  0  0  0  0  0  0  0  0  0  0  0
   -0.9304   -6.2561   -4.2825 H   0  0  0  0  0  0  0  0  0  0  0  0
    0.7567   -6.4897   -2.6191 H   0  0  0  0  0  0  0  0  0  0  0  0
    1.7907   -5.2006   -1.9578 H   0  0  0  0  0  0  0  0  0  0  0  0
   -3.0594   -7.5264   -4.2352 H   0  0  0  0  0  0  0  0  0  0  0  0
   -3.5081   -6.7178   -2.7143 H   0  0  0  0  0  0  0  0  0  0  0  0
   -2.1090   -7.8173   -2.7586 H   0  0  0  0  0  0  0  0  0  0  0  0
    3.1419   -6.8958   -3.1616 H   0  0  0  0  0  0  0  0  0  0  0  0
    2.1915   -6.6048   -4.6382 H   0  0  0  0  0  0  0  0  0  0  0  0
    3.2255   -5.3158   -3.9769 H   0  0  0  0  0  0  0  0  0  0  0  0
    2.1569    3.3890   -2.3076 H   0  0  0  0  0  0  0  0  0  0  0  0
    5.2199    7.1045   -3.0331 H   0  0  0  0  0  0  0  0  0  0  0  0
    1.3318    5.5713   -2.4638 H   0  0  0  0  0  0  0  0  0  0  0  0
    2.8360    8.1887   -3.9587 H   0  0  0  0  0  0  0  0  0  0  0  0
    1.5196    7.7475   -2.8449 H   0  0  0  0  0  0  0  0  0  0  0  0
    2.9968    8.5163   -2.2165 H   0  0  0  0  0  0  0  0  0  0  0  0
    6.8526    5.7927   -3.0571 H   0  0  0  0  0  0  0  0  0  0  0  0
  1 10  1  0  0  0  0
  1 16  1  0  0  0  0
  2 10  1  0  0  0  0
  2 17  1  0  0  0  0
  3 21  2  0  0  0  0
  4 23  1  0  0  0  0
  4 60  1  0  0  0  0
  5  6  1  0  0  0  0
  5  7  1  0  0  0  0
  5  8  1  0  0  0  0
  5  9  1  0  0  0  0
  6 10  1  0  0  0  0
  6 29  1  0  0  0  0
  6 30  1  0  0  0  0
  7 11  1  0  0  0  0
  7 31  1  0  0  0  0
  7 32  1  0  0  0  0
  8 33  1  0  0  0  0
  8 34  1  0  0  0  0
  8 35  1  0  0  0  0
  9 36  1  0  0  0  0
  9 37  1  0  0  0  0
  9 38  1  0  0  0  0
 10 39  1  0  0  0  0
 11 12  2  0  0  0  0
 11 13  1  0  0  0  0
 12 14  1  0  0  0  0
 12 40  1  0  0  0  0
 13 15  2  0  0  0  0
 13 41  1  0  0  0  0
 14 18  2  0  0  0  0
 14 42  1  0  0  0  0
 15 18  1  0  0  0  0
 15 43  1  0  0  0  0
 16 19  1  0  0  0  0
 16 44  1  0  0  0  0
 16 45  1  0  0  0  0
 17 20  1  0  0  0  0
 17 46  1  0  0  0  0
 17 47  1  0  0  0  0
 18 21  1  0  0  0  0
 19 48  1  0  0  0  0
 19 49  1  0  0  0  0
 19 50  1  0  0  0  0
 20 51  1  0  0  0  0
 20 52  1  0  0  0  0
 20 53  1  0  0  0  0
 21 22  1  0  0  0  0
 22 23  2  0  0  0  0
 22 24  1  0  0  0  0
 23 25  1  0  0  0  0
 24 27  2  0  0  0  0
 24 54  1  0  0  0  0
 25 26  2  0  0  0  0
 25 55  1  0  0  0  0
 26 27  1  0  0  0  0
 26 28  1  0  0  0  0
 27 56  1  0  0  0  0
 28 57  1  0  0  0  0
 28 58  1  0  0  0  0
 28 59  1  0  0  0  0
M  CHG  1   5   1
M  END
