lig
 OpenBabel04172506393D

 60 61  0  0  0  0  0  0  0  0999 V2000
    5.3037   -0.6319   -0.7191 O   0  0  0  0  0  0  0  0  0  0  0  0
    3.9741   -1.7345    0.9066 O   0  0  0  0  0  0  0  0  0  0  0  0
   -2.9689    0.0312    2.5021 O   0  0  0  0  0  0  0  0  0  0  0  0
   -3.9959   -2.3454    1.0270 O   0  0  0  0  0  0  0  0  0  0  0  0
    3.3083    1.6816   -0.2321 N   0  3  0  0  0  0  0  0  0  0  0  0
    3.0911    0.2123   -0.1672 C   0  0  0  0  0  0  0  0  0  0  0  0
    2.0655    2.3898   -0.7867 C   0  0  0  0  0  0  0  0  0  0  0  0
    3.6006    2.2493    1.1629 C   0  0  0  0  0  0  0  0  0  0  0  0
    4.4966    2.0148   -1.1436 C   0  0  0  0  0  0  0  0  0  0  0  0
    4.3581   -0.4725    0.3425 C   0  0  0  0  0  0  0  0  0  0  0  0
    0.7815    1.8354   -0.2435 C   0  0  0  0  0  0  0  0  0  0  0  0
    0.3880    2.1356    1.0606 C   0  0  0  0  0  0  0  0  0  0  0  0
   -0.0188    1.0197   -1.0433 C   0  0  0  0  0  0  0  0  0  0  0  0
   -0.8058    1.6200    1.5649 C   0  0  0  0  0  0  0  0  0  0  0  0
   -1.2127    0.5041   -0.5389 C   0  0  0  0  0  0  0  0  0  0  0  0
    6.5068   -1.2650   -0.3054 C   0  0  0  0  0  0  0  0  0  0  0  0
    3.3412   -2.5813   -0.0435 C   0  0  0  0  0  0  0  0  0  0  0  0
   -1.6063    0.8042    0.7652 C   0  0  0  0  0  0  0  0  0  0  0  0
    7.4349   -1.3854   -1.4951 C   0  0  0  0  0  0  0  0  0  0  0  0
    2.9695   -3.8856    0.6289 C   0  0  0  0  0  0  0  0  0  0  0  0
   -2.8514    0.2664    1.2903 C   0  0  0  0  0  0  0  0  0  0  0  0
   -4.0285   -0.0255    0.4177 C   0  0  0  0  0  0  0  0  0  0  0  0
   -4.5475   -1.3168    0.3232 C   0  0  0  0  0  0  0  0  0  0  0  0
   -4.6080    1.0140   -0.3097 C   0  0  0  0  0  0  0  0  0  0  0  0
   -5.6459   -1.5686   -0.4987 C   0  0  0  0  0  0  0  0  0  0  0  0
   -6.2255   -0.5290   -1.2261 C   0  0  0  0  0  0  0  0  0  0  0  0
   -5.7065    0.7623   -1.1316 C   0  0  0  0  0  0  0  0  0  0  0  0
   -7.3979   -0.7991   -2.1074 C   0  0  0  0  0  0  0  0  0  0  0  0
    2.2673    0.0007    0.5224 H   0  0  0  0  0  0  0  0  0  0  0  0
    2.8306   -0.1214   -1.1791 H   0  0  0  0  0  0  0  0  0  0  0  0
    2.1533    3.4664   -0.5946 H   0  0  0  0  0  0  0  0  0  0  0  0
    2.0927    2.2600   -1.8767 H   0  0  0  0  0  0  0  0  0  0  0  0
    2.9753    1.7441    1.9028 H   0  0  0  0  0  0  0  0  0  0  0  0
    3.4117    3.3271    1.1561 H   0  0  0  0  0  0  0  0  0  0  0  0
    4.6556    2.0967    1.4079 H   0  0  0  0  0  0  0  0  0  0  0  0
    4.3718    1.4841   -2.0920 H   0  0  0  0  0  0  0  0  0  0  0  0
    5.4359    1.7551   -0.6502 H   0  0  0  0  0  0  0  0  0  0  0  0
    4.4867    3.0958   -1.3194 H   0  0  0  0  0  0  0  0  0  0  0  0
    4.8397    0.0635    1.1621 H   0  0  0  0  0  0  0  0  0  0  0  0
    0.9737    2.7983    1.6897 H   0  0  0  0  0  0  0  0  0  0  0  0
    0.2770    0.7732   -2.0595 H   0  0  0  0  0  0  0  0  0  0  0  0
   -1.1019    1.8752    2.5792 H   0  0  0  0  0  0  0  0  0  0  0  0
   -1.8079   -0.1400   -1.1804 H   0  0  0  0  0  0  0  0  0  0  0  0
    6.2997   -2.2636    0.0929 H   0  0  0  0  0  0  0  0  0  0  0  0
    6.9861   -0.6654    0.4763 H   0  0  0  0  0  0  0  0  0  0  0  0
    2.4159   -2.1409   -0.4256 H   0  0  0  0  0  0  0  0  0  0  0  0
    4.0107   -2.7880   -0.8850 H   0  0  0  0  0  0  0  0  0  0  0  0
    8.3762   -1.8636   -1.2104 H   0  0  0  0  0  0  0  0  0  0  0  0
    7.6528   -0.3980   -1.9153 H   0  0  0  0  0  0  0  0  0  0  0  0
    6.9661   -1.9735   -2.2911 H   0  0  0  0  0  0  0  0  0  0  0  0
    2.4791   -4.5639   -0.0752 H   0  0  0  0  0  0  0  0  0  0  0  0
    2.2961   -3.7063    1.4736 H   0  0  0  0  0  0  0  0  0  0  0  0
    3.8606   -4.3789    1.0311 H   0  0  0  0  0  0  0  0  0  0  0  0
   -4.2177    2.0263   -0.2432 H   0  0  0  0  0  0  0  0  0  0  0  0
   -6.0451   -2.5775   -0.5703 H   0  0  0  0  0  0  0  0  0  0  0  0
   -6.1482    1.5803   -1.6944 H   0  0  0  0  0  0  0  0  0  0  0  0
   -7.0579   -1.0845   -3.1078 H   0  0  0  0  0  0  0  0  0  0  0  0
   -8.0399    0.0842   -2.1941 H   0  0  0  0  0  0  0  0  0  0  0  0
   -8.0177   -1.6066   -1.7029 H   0  0  0  0  0  0  0  0  0  0  0  0
   -3.2380   -2.0314    1.5462 H   0  0  0  0  0  0  0  0  0  0  0  0
  1 10  1  0  0  0  0
  1 16  1  0  0  0  0
  2 10  1  0  0  0  0
  2 17  1  0  0  0  0
  3 21  2  0  0  0  0
  4 23  1  0  0  0  0
  4 60  1  0  0  0  0
  5  6  1  0  0  0  0
  5  7  1  0  0  0  0
  5  8  1  0  0  0  0
  5  9  1  0  0  0  0
  6 10  1  0  0  0  0
  6 29  1  0  0  0  0
  6 30  1  0  0  0  0
  7 11  1  0  0  0  0
  7 31  1  0  0  0  0
  7 32  1  0  0  0  0
  8 33  1  0  0  0  0
  8 34  1  0  0  0  0
  8 35  1  0  0  0  0
  9 36  1  0  0  0  0
  9 37  1  0  0  0  0
  9 38  1  0  0  0  0
 10 39  1  0  0  0  0
 11 12  2  0  0  0  0
 11 13  1  0  0  0  0
 12 14  1  0  0  0  0
 12 40  1  0  0  0  0
 13 15  2  0  0  0  0
 13 41  1  0  0  0  0
 14 18  2  0  0  0  0
 14 42  1  0  0  0  0
 15 18  1  0  0  0  0
 15 43  1  0  0  0  0
 16 19  1  0  0  0  0
 16 44  1  0  0  0  0
 16 45  1  0  0  0  0
 17 20  1  0  0  0  0
 17 46  1  0  0  0  0
 17 47  1  0  0  0  0
 18 21  1  0  0  0  0
 19 48  1  0  0  0  0
 19 49  1  0  0  0  0
 19 50  1  0  0  0  0
 20 51  1  0  0  0  0
 20 52  1  0  0  0  0
 20 53  1  0  0  0  0
 21 22  1  0  0  0  0
 22 23  2  0  0  0  0
 22 24  1  0  0  0  0
 23 25  1  0  0  0  0
 24 27  2  0  0  0  0
 24 54  1  0  0  0  0
 25 26  2  0  0  0  0
 25 55  1  0  0  0  0
 26 27  1  0  0  0  0
 26 28  1  0  0  0  0
 27 56  1  0  0  0  0
 28 57  1  0  0  0  0
 28 58  1  0  0  0  0
 28 59  1  0  0  0  0
M  CHG  1   5   1
M  END
