35217964
  -OEChem-04172506433D

 57 58  0     0  0  0  0  0  0999 V2000
   -3.7163    0.8990    1.8833 O   0  0  0  0  0  0  0  0  0  0  0  0
   -0.5285   -0.2369   -0.5704 O   0  0  0  0  0  0  0  0  0  0  0  0
    1.6907   -0.5294   -2.0268 O   0  0  0  0  0  0  0  0  0  0  0  0
    0.5295   -1.8699    0.6551 O   0  0  0  0  0  0  0  0  0  0  0  0
   -4.2408   -0.3806   -0.2163 N   0  3  0  0  0  0  0  0  0  0  0  0
   -2.8971    0.1193   -0.7273 C   0  0  0  0  0  0  0  0  0  0  0  0
   -4.4437   -1.8264   -0.6462 C   0  0  0  0  0  0  0  0  0  0  0  0
   -5.3537    0.4795   -0.8027 C   0  0  0  0  0  0  0  0  0  0  0  0
   -4.2803   -0.2854    1.3181 C   0  0  0  0  0  0  0  0  0  0  0  0
   -1.7885   -0.7215   -0.1253 C   0  0  0  0  0  0  0  0  0  0  0  0
   -5.7842   -2.3132   -0.1407 C   0  0  0  0  0  0  0  0  0  0  0  0
   -5.3128    0.3859   -2.3123 C   0  0  0  0  0  0  0  0  0  0  0  0
    1.8636   -0.2623   -0.6200 C   0  0  0  0  0  0  0  0  0  0  0  0
    0.5757   -0.9074   -0.1017 C   0  0  0  0  0  0  0  0  0  0  0  0
   -3.8058    0.8953    3.3014 C   0  0  0  0  0  0  0  0  0  0  0  0
    3.1431   -0.9281   -0.1080 C   0  0  0  0  0  0  0  0  0  0  0  0
    1.9033    1.2492   -0.3846 C   0  0  0  0  0  0  0  0  0  0  0  0
    3.4902   -0.8272    1.2392 C   0  0  0  0  0  0  0  0  0  0  0  0
    2.4353    2.0929   -1.3597 C   0  0  0  0  0  0  0  0  0  0  0  0
    3.9618   -1.6355   -0.9881 C   0  0  0  0  0  0  0  0  0  0  0  0
    1.4076    1.7833    0.8047 C   0  0  0  0  0  0  0  0  0  0  0  0
    4.6564   -1.4338    1.7063 C   0  0  0  0  0  0  0  0  0  0  0  0
    2.4717    3.4709   -1.1455 C   0  0  0  0  0  0  0  0  0  0  0  0
    5.1277   -2.2421   -0.5212 C   0  0  0  0  0  0  0  0  0  0  0  0
    1.4439    3.1611    1.0190 C   0  0  0  0  0  0  0  0  0  0  0  0
    5.4751   -2.1413    0.8260 C   0  0  0  0  0  0  0  0  0  0  0  0
    1.9759    4.0049    0.0439 C   0  0  0  0  0  0  0  0  0  0  0  0
   -2.8461    0.0095   -1.8140 H   0  0  0  0  0  0  0  0  0  0  0  0
   -2.7889    1.1819   -0.4813 H   0  0  0  0  0  0  0  0  0  0  0  0
   -4.3159   -1.9338   -1.7260 H   0  0  0  0  0  0  0  0  0  0  0  0
   -3.6856   -2.4462   -0.1594 H   0  0  0  0  0  0  0  0  0  0  0  0
   -6.3210    0.1854   -0.3872 H   0  0  0  0  0  0  0  0  0  0  0  0
   -5.1640    1.5119   -0.4846 H   0  0  0  0  0  0  0  0  0  0  0  0
   -3.7660   -1.1649    1.7242 H   0  0  0  0  0  0  0  0  0  0  0  0
   -5.3337   -0.3292    1.6174 H   0  0  0  0  0  0  0  0  0  0  0  0
   -1.7848   -0.6829    0.9673 H   0  0  0  0  0  0  0  0  0  0  0  0
   -1.8474   -1.7635   -0.4494 H   0  0  0  0  0  0  0  0  0  0  0  0
   -5.9096   -2.2466    0.9423 H   0  0  0  0  0  0  0  0  0  0  0  0
   -6.6351   -1.8380   -0.6349 H   0  0  0  0  0  0  0  0  0  0  0  0
   -5.8716   -3.3804   -0.3807 H   0  0  0  0  0  0  0  0  0  0  0  0
   -6.1324    1.0023   -2.7043 H   0  0  0  0  0  0  0  0  0  0  0  0
   -4.4112    0.8039   -2.7647 H   0  0  0  0  0  0  0  0  0  0  0  0
   -5.4965   -0.6138   -2.7104 H   0  0  0  0  0  0  0  0  0  0  0  0
   -3.3600    1.8204    3.6766 H   0  0  0  0  0  0  0  0  0  0  0  0
   -3.2531    0.0477    3.7179 H   0  0  0  0  0  0  0  0  0  0  0  0
   -4.8519    0.8573    3.6201 H   0  0  0  0  0  0  0  0  0  0  0  0
    1.0031    0.0646   -2.3749 H   0  0  0  0  0  0  0  0  0  0  0  0
    2.8640   -0.3011    1.9521 H   0  0  0  0  0  0  0  0  0  0  0  0
    2.8393    1.7003   -2.2887 H   0  0  0  0  0  0  0  0  0  0  0  0
    3.7261   -1.7351   -2.0433 H   0  0  0  0  0  0  0  0  0  0  0  0
    0.9865    1.1503    1.5807 H   0  0  0  0  0  0  0  0  0  0  0  0
    4.9246   -1.3593    2.7561 H   0  0  0  0  0  0  0  0  0  0  0  0
    2.8886    4.1277   -1.9032 H   0  0  0  0  0  0  0  0  0  0  0  0
    5.7656   -2.7932   -1.2061 H   0  0  0  0  0  0  0  0  0  0  0  0
    1.0577    3.5771    1.9449 H   0  0  0  0  0  0  0  0  0  0  0  0
    6.3825   -2.6145    1.1898 H   0  0  0  0  0  0  0  0  0  0  0  0
    2.0047    5.0776    0.2112 H   0  0  0  0  0  0  0  0  0  0  0  0
  1  9  1  0  0  0  0
  1 15  1  0  0  0  0
  2 10  1  0  0  0  0
  2 14  1  0  0  0  0
  3 13  1  0  0  0  0
  3 47  1  0  0  0  0
  4 14  2  0  0  0  0
  5  6  1  0  0  0  0
  5  7  1  0  0  0  0
  5  8  1  0  0  0  0
  5  9  1  0  0  0  0
  6 10  1  0  0  0  0
  6 28  1  0  0  0  0
  6 29  1  0  0  0  0
  7 11  1  0  0  0  0
  7 30  1  0  0  0  0
  7 31  1  0  0  0  0
  8 12  1  0  0  0  0
  8 32  1  0  0  0  0
  8 33  1  0  0  0  0
  9 34  1  0  0  0  0
  9 35  1  0  0  0  0
 10 36  1  0  0  0  0
 10 37  1  0  0  0  0
 11 38  1  0  0  0  0
 11 39  1  0  0  0  0
 11 40  1  0  0  0  0
 12 41  1  0  0  0  0
 12 42  1  0  0  0  0
 12 43  1  0  0  0  0
 13 14  1  0  0  0  0
 13 16  1  0  0  0  0
 13 17  1  0  0  0  0
 15 44  1  0  0  0  0
 15 45  1  0  0  0  0
 15 46  1  0  0  0  0
 16 18  2  0  0  0  0
 16 20  1  0  0  0  0
 17 19  2  0  0  0  0
 17 21  1  0  0  0  0
 18 22  1  0  0  0  0
 18 48  1  0  0  0  0
 19 23  1  0  0  0  0
 19 49  1  0  0  0  0
 20 24  2  0  0  0  0
 20 50  1  0  0  0  0
 21 25  2  0  0  0  0
 21 51  1  0  0  0  0
 22 26  2  0  0  0  0
 22 52  1  0  0  0  0
 23 27  2  0  0  0  0
 23 53  1  0  0  0  0
 24 26  1  0  0  0  0
 24 54  1  0  0  0  0
 25 27  1  0  0  0  0
 25 55  1  0  0  0  0
 26 56  1  0  0  0  0
 27 57  1  0  0  0  0
M  CHG  1   5   1
M  END
> <PUBCHEM_COMPOUND_CID>
35217964

> <PUBCHEM_CONFORMER_RMSD>
1

> <PUBCHEM_CONFORMER_DIVERSEORDER>
2
136
82
167
114
80
153
57
71
64
159
154
142
135
46
160
161
52
58
126
38
152
61
45
115
144
51
146
85
117
147
59
65
98
87
97
100
75
79
131
123
156
84
78
95
125
103
133
22
111
162
16
48
20
73
11
110
102
39
70
157
139
42
49
63
31
92
67
155
72
108
68
25
17
88
128
140
43
132
105
50
90
89
18
32
30
118
124
81
96
143
35
62
148
164
106
121
134
40
112
127
69
6
36
23
158
165
55
66
74
141
104
12
94
107
166
53
37
91
109
14
93
145
76
163
56
4
99
13
10
129
28
120
83
19
33
122
54
149
138
1
29
77
151
44
34
168
8
26
113
137
3
41
24
150
60
130
7
47
86
15
116
27
101
21
9
119
5

> <PUBCHEM_MMFF94_PARTIAL_CHARGES>
36
1 -0.56
10 0.28
13 0.63
14 0.66
15 0.28
16 -0.14
17 -0.14
18 -0.15
19 -0.15
2 -0.43
20 -0.15
21 -0.15
22 -0.15
23 -0.15
24 -0.15
25 -0.15
26 -0.15
27 -0.15
3 -0.68
4 -0.57
47 0.4
48 0.15
49 0.15
5 -1.01
50 0.15
51 0.15
52 0.15
53 0.15
54 0.15
55 0.15
56 0.15
57 0.15
6 0.5
7 0.5
8 0.5
9 0.78

> <PUBCHEM_EFFECTIVE_ROTOR_COUNT>
11

> <PUBCHEM_PHARMACOPHORE_FEATURES>
7
1 1 acceptor
1 3 acceptor
1 3 donor
1 4 acceptor
1 5 cation
6 16 18 20 22 24 26 rings
6 17 19 21 23 25 27 rings

> <PUBCHEM_HEAVY_ATOM_COUNT>
27

> <PUBCHEM_ATOM_DEF_STEREO_COUNT>
0

> <PUBCHEM_ATOM_UDEF_STEREO_COUNT>
0

> <PUBCHEM_BOND_DEF_STEREO_COUNT>
0

> <PUBCHEM_BOND_UDEF_STEREO_COUNT>
0

> <PUBCHEM_ISOTOPIC_ATOM_COUNT>
0

> <PUBCHEM_COMPONENT_COUNT>
1

> <PUBCHEM_CACTVS_TAUTO_COUNT>
1

> <PUBCHEM_CONFORMER_ID>
0219622C00000002

> <PUBCHEM_MMFF94_ENERGY>
90.6463

> <PUBCHEM_FEATURE_SELFOVERLAP>
35.522

> <PUBCHEM_SHAPE_FINGERPRINT>
10366900 7 17167857548275272923
10369192 42 11743257589055021970
10764073 3 16197349270618370492
11405975 8 18335135406492028831
11545043 162 17167868564887219867
11796584 16 16226332508453175146
12166972 35 18272359872077422057
12422481 6 17701829778130576464
12516196 113 18409443670773037482
12616971 3 18272936046715208559
12633257 1 18341626884208228661
13009979 54 17917441907776702249
13134695 92 18343009004700289348
13533116 47 18264488563082209179
13590594 115 18336552612097494736
13782708 43 17894919550886789571
14190465 44 17560811992215897713
14347329 18 15648717221869604821
14466204 15 18190732034178592237
14739800 52 17416680448234840744
14950920 106 18117870813632230073
14955137 171 18412258411633731078
15131766 46 17976562803555613161
17349148 13 17846503638124636795
17809404 112 14404913436211742081
17980427 23 17775568619699478992
1813 80 18339644443484828942
18222031 100 18411417268232511054
21033648 29 17487873666913324962
2132832 1 18060418010739319913
21709351 56 18335972121787612095
22849341 161 18339939116727274248
23557571 272 15123520219636932993
23559900 14 18335971039349942175
249057 3 18339916031652423045
312423 11 18272381909686298105
314194 84 17967536735928850522
3411729 13 18190732219527110120
345986 75 17679842844373924834
5104073 3 18337676420913940195
5895379 119 17345495741590380848
6086070 43 18188752990874524687
6823239 73 16081374080599541629
7471813 234 18202557371729416749
7495541 125 18113897169486976486
9841814 1 18334012792156085322
9971528 1 18201433658372079070
9981440 41 17620180375306566088

> <PUBCHEM_SHAPE_MULTIPOLES>
527.19
13.23
3.64
2.06
12.06
3.73
-1.13
-8.68
-0.02
-4.54
0.11
2.04
0.57
-1.25

> <PUBCHEM_SHAPE_SELFOVERLAP>
1090.005

> <PUBCHEM_SHAPE_VOLUME>
301

> <PUBCHEM_COORDINATE_TYPE>
2
5
10

$$$$
