129750291
  -OEChem-04112506393D

 53 57  0     1  0  0  0  0  0999 V2000
    2.2839    0.0446    1.6352 S   0  0  0  0  0  0  0  0  0  0  0  0
    3.2288   -0.5060   -2.6258 O   0  0  0  0  0  0  0  0  0  0  0  0
    6.6432    1.0165   -0.3957 O   0  0  0  0  0  0  0  0  0  0  0  0
    5.1616    2.7004   -0.8019 O   0  0  0  0  0  0  0  0  0  0  0  0
   -2.3992   -2.6674    0.2855 O   0  0  0  0  0  0  0  0  0  0  0  0
   -5.4712    1.0690    0.3917 O   0  0  0  0  0  0  0  0  0  0  0  0
   -6.8455    2.9008    0.4096 O   0  0  0  0  0  0  0  0  0  0  0  0
    3.1532    0.8227   -0.6774 N   0  0  0  0  0  0  0  0  0  0  0  0
    0.7325   -1.1946   -0.7445 N   0  0  0  0  0  0  0  0  0  0  0  0
    1.8801    0.8786    0.0531 C   0  0  1  0  0  0  0  0  0  0  0  0
    4.0407    0.6563    1.5579 C   0  0  0  0  0  0  0  0  0  0  0  0
    4.3806    0.5809    0.0546 C   0  0  2  0  0  0  0  0  0  0  0  0
    1.2625    0.0735   -1.1041 C   0  0  1  0  0  0  0  0  0  0  0  0
    2.6820    0.0528   -1.7019 C   0  0  0  0  0  0  0  0  0  0  0  0
    4.0714    2.0742    2.1459 C   0  0  0  0  0  0  0  0  0  0  0  0
    4.9290   -0.2760    2.3830 C   0  0  0  0  0  0  0  0  0  0  0  0
    5.4030    1.5625   -0.4275 C   0  0  0  0  0  0  0  0  0  0  0  0
   -0.5903   -1.4991   -0.3656 C   0  0  0  0  0  0  0  0  0  0  0  0
   -1.0796   -2.7396   -0.0284 C   0  0  0  0  0  0  0  0  0  0  0  0
   -1.6796   -0.5947   -0.2544 C   0  0  0  0  0  0  0  0  0  0  0  0
   -0.4717   -4.0766    0.0556 C   0  0  0  0  0  0  0  0  0  0  0  0
   -2.7683   -1.3626    0.1487 C   0  0  0  0  0  0  0  0  0  0  0  0
   -1.8612    0.7884   -0.4511 C   0  0  0  0  0  0  0  0  0  0  0  0
   -4.0449   -0.8543    0.3753 C   0  0  0  0  0  0  0  0  0  0  0  0
   -1.0988   -5.0937   -0.9291 C   0  0  0  0  0  0  0  0  0  0  0  0
   -0.5045   -4.6722    1.4843 C   0  0  0  0  0  0  0  0  0  0  0  0
   -3.1328    1.3416   -0.2336 C   0  0  0  0  0  0  0  0  0  0  0  0
   -4.1862    0.5210    0.1700 C   0  0  0  0  0  0  0  0  0  0  0  0
   -3.3843    2.7620   -0.4200 C   0  0  0  0  0  0  0  0  0  0  0  0
   -4.6019    3.2672   -0.2081 C   0  0  0  0  0  0  0  0  0  0  0  0
   -5.7325    2.4237    0.2184 C   0  0  0  0  0  0  0  0  0  0  0  0
    1.5047    1.9014    0.1573 H   0  0  0  0  0  0  0  0  0  0  0  0
    4.7139   -0.4285   -0.2248 H   0  0  0  0  0  0  0  0  0  0  0  0
    0.6011    0.6304   -1.7757 H   0  0  0  0  0  0  0  0  0  0  0  0
    3.7098    2.0865    3.1811 H   0  0  0  0  0  0  0  0  0  0  0  0
    5.0945    2.4670    2.1639 H   0  0  0  0  0  0  0  0  0  0  0  0
    3.4614    2.7791    1.5702 H   0  0  0  0  0  0  0  0  0  0  0  0
    4.8859   -1.3092    2.0192 H   0  0  0  0  0  0  0  0  0  0  0  0
    5.9762    0.0435    2.3330 H   0  0  0  0  0  0  0  0  0  0  0  0
    4.6389   -0.2799    3.4401 H   0  0  0  0  0  0  0  0  0  0  0  0
    1.4166   -1.9480   -0.7222 H   0  0  0  0  0  0  0  0  0  0  0  0
    0.5877   -3.9936   -0.2198 H   0  0  0  0  0  0  0  0  0  0  0  0
    7.3283    1.6452   -0.7082 H   0  0  0  0  0  0  0  0  0  0  0  0
   -1.0458    1.4373   -0.7489 H   0  0  0  0  0  0  0  0  0  0  0  0
   -4.8680   -1.4845    0.6888 H   0  0  0  0  0  0  0  0  0  0  0  0
   -2.1540   -5.2735   -0.6950 H   0  0  0  0  0  0  0  0  0  0  0  0
   -0.5703   -6.0518   -0.8865 H   0  0  0  0  0  0  0  0  0  0  0  0
   -1.0430   -4.7191   -1.9570 H   0  0  0  0  0  0  0  0  0  0  0  0
   -1.5338   -4.8336    1.8233 H   0  0  0  0  0  0  0  0  0  0  0  0
   -0.0202   -3.9937    2.1952 H   0  0  0  0  0  0  0  0  0  0  0  0
    0.0217   -5.6320    1.5171 H   0  0  0  0  0  0  0  0  0  0  0  0
   -2.5679    3.4035   -0.7336 H   0  0  0  0  0  0  0  0  0  0  0  0
   -4.7927    4.3258   -0.3463 H   0  0  0  0  0  0  0  0  0  0  0  0
  1 10  1  0  0  0  0
  1 11  1  0  0  0  0
  2 14  2  0  0  0  0
  3 17  1  0  0  0  0
  3 43  1  0  0  0  0
  4 17  2  0  0  0  0
  5 19  1  0  0  0  0
  5 22  1  0  0  0  0
  6 28  1  0  0  0  0
  6 31  1  0  0  0  0
  7 31  2  0  0  0  0
  8 10  1  0  0  0  0
  8 12  1  0  0  0  0
  8 14  1  0  0  0  0
  9 13  1  0  0  0  0
  9 18  1  0  0  0  0
  9 41  1  0  0  0  0
 10 13  1  0  0  0  0
 10 32  1  0  0  0  0
 11 12  1  0  0  0  0
 11 15  1  0  0  0  0
 11 16  1  0  0  0  0
 12 17  1  0  0  0  0
 12 33  1  0  0  0  0
 13 14  1  0  0  0  0
 13 34  1  0  0  0  0
 15 35  1  0  0  0  0
 15 36  1  0  0  0  0
 15 37  1  0  0  0  0
 16 38  1  0  0  0  0
 16 39  1  0  0  0  0
 16 40  1  0  0  0  0
 18 19  2  0  0  0  0
 18 20  1  0  0  0  0
 19 21  1  0  0  0  0
 20 22  2  0  0  0  0
 20 23  1  0  0  0  0
 21 25  1  0  0  0  0
 21 26  1  0  0  0  0
 21 42  1  0  0  0  0
 22 24  1  0  0  0  0
 23 27  2  0  0  0  0
 23 44  1  0  0  0  0
 24 28  2  0  0  0  0
 24 45  1  0  0  0  0
 25 46  1  0  0  0  0
 25 47  1  0  0  0  0
 25 48  1  0  0  0  0
 26 49  1  0  0  0  0
 26 50  1  0  0  0  0
 26 51  1  0  0  0  0
 27 28  1  0  0  0  0
 27 29  1  0  0  0  0
 29 30  2  0  0  0  0
 29 52  1  0  0  0  0
 30 31  1  0  0  0  0
 30 53  1  0  0  0  0
M  END
> <PUBCHEM_COMPOUND_CID>
129750291

> <PUBCHEM_CONFORMER_RMSD>
0.8

> <PUBCHEM_CONFORMER_DIVERSEORDER>
1
15
21
24
26
16
5
13
9
20
23
25
19
4
8
3
11
7
22
12
6
27
10
14
18
17
2

> <PUBCHEM_MMFF94_PARTIAL_CHARGES>
32
1 -0.45
10 0.44
11 0.23
12 0.36
13 0.3
14 0.58
17 0.66
18 0.08
19 -0.04
2 -0.57
21 0.18
22 0.14
23 -0.15
24 -0.15
27 0.03
28 0.08
29 -0.18
3 -0.65
30 -0.14
31 0.71
4 -0.57
41 0.4
43 0.5
44 0.15
45 0.15
5 -0.28
52 0.15
53 0.15
6 -0.23
7 -0.57
8 -0.59
9 -0.73

> <PUBCHEM_EFFECTIVE_ROTOR_COUNT>
4.8

> <PUBCHEM_PHARMACOPHORE_FEATURES>
15
1 2 acceptor
1 3 acceptor
1 4 acceptor
1 5 acceptor
1 7 acceptor
1 9 cation
1 9 donor
3 11 15 16 hydrophobe
3 21 25 26 hydrophobe
3 3 4 17 anion
4 8 10 13 14 rings
5 5 18 19 20 22 rings
6 20 22 23 24 27 28 rings
6 6 27 28 29 30 31 rings
7 1 8 10 11 12 13 14 rings

> <PUBCHEM_HEAVY_ATOM_COUNT>
31

> <PUBCHEM_ATOM_DEF_STEREO_COUNT>
3

> <PUBCHEM_ATOM_UDEF_STEREO_COUNT>
0

> <PUBCHEM_BOND_DEF_STEREO_COUNT>
0

> <PUBCHEM_BOND_UDEF_STEREO_COUNT>
0

> <PUBCHEM_ISOTOPIC_ATOM_COUNT>
0

> <PUBCHEM_COMPONENT_COUNT>
1

> <PUBCHEM_CACTVS_TAUTO_COUNT>
2

> <PUBCHEM_CONFORMER_ID>
07BBD51300000001

> <PUBCHEM_MMFF94_ENERGY>
85.1754

> <PUBCHEM_FEATURE_SELFOVERLAP>
79.991

> <PUBCHEM_SHAPE_FINGERPRINT>
10074138 170 18262794211326771707
10319926 262 18269827770366908178
10411042 1 17690003753502165895
11049842 53 18116456798460802686
11552529 35 18046335607697510238
12107183 9 18262226713160875466
12166972 35 12391507585728988321
12236239 1 17748826349702488572
12422481 6 17532641348111335709
12596602 18 17458062685596294441
12788726 201 17682699649986364095
13140716 1 18262520265132350575
13726171 33 18269006451924024768
14251757 5 18340209712356749488
14294032 229 18343024436945213963
14739800 52 17985255284548817833
15230672 131 18409169879931052798
15238133 3 18341602729639503000
15420108 30 18339346475639250319
15927050 60 18411420600621549262
20511986 3 17603853559568414964
20554085 129 18271231726124366369
21033648 29 18343298180173631496
21120745 212 17758401051317528375
21223535 225 16199885959259285049
212916 134 18411692180055802411
21304303 282 18056730278899787863
22149856 69 18120962546516008153
23522609 53 17604724399444275412
23559900 14 18272098171409542004
249999 5 18121781630368667411
3411729 13 18191022297164637251
376196 1 18059853948136057311
4058900 60 18339933593315150353
495365 180 17775003436542379662
508706 21 18129654352033509093
5219985 13 18411980243749715549
5385378 56 18195813964591211305
57124632 79 18120929517172424557
6086070 43 16487250007059757854
6673363 416 17111588129907515300
6700243 42 17334542600307333662
7808743 9 18409731797920814669
9658208 31 18340220638437325286
9849439 229 18409731746818855709
9896288 288 18188216514878632987
9981440 41 18335983095676888803

> <PUBCHEM_SHAPE_MULTIPOLES>
596.64
13.55
5.15
1.65
1.08
7.21
-0.21
-16.44
-2.14
-5.69
-0.31
2.96
0.14
-0.1

> <PUBCHEM_SHAPE_SELFOVERLAP>
1299.628

> <PUBCHEM_SHAPE_VOLUME>
331

> <PUBCHEM_COORDINATE_TYPE>
2
5
10

$$$$
