90672731
  -OEChem-04152518183D

 49 52  0     1  0  0  0  0  0999 V2000
   -2.0481   -0.9574    0.7650 S   0  0  0  0  0  0  0  0  0  0  0  0
   -6.0998   -2.0264   -1.8073 S   0  0  0  0  0  0  0  0  0  0  0  0
    5.4486   -0.1182    0.8171 S   0  0  0  0  0  0  0  0  0  0  0  0
   -2.0991    3.4378   -0.7726 O   0  0  0  0  0  0  0  0  0  0  0  0
    1.0088    3.1947   -0.3524 O   0  0  0  0  0  0  0  0  0  0  0  0
   -5.7161    1.0308    1.9067 O   0  0  0  0  0  0  0  0  0  0  0  0
    1.1344    1.8653   -2.2091 O   0  0  0  0  0  0  0  0  0  0  0  0
   -1.1825    1.4891    0.1901 N   0  0  0  0  0  0  0  0  0  0  0  0
   -4.2464    1.1543    0.1142 N   0  0  0  0  0  0  0  0  0  0  0  0
    8.1465   -0.8105    0.8141 N   0  0  0  0  0  0  0  0  0  0  0  0
    7.1938   -1.1477   -1.1046 N   0  0  0  0  0  0  0  0  0  0  0  0
    9.1121   -1.2962    0.0216 N   0  0  0  0  0  0  0  0  0  0  0  0
    8.5236   -1.5008   -1.1505 N   0  0  0  0  0  0  0  0  0  0  0  0
   -1.9444    0.7920    1.2125 C   0  0  1  0  0  0  0  0  0  0  0  0
   -3.1221    1.7271    0.8427 C   0  0  1  0  0  0  0  0  0  0  0  0
   -2.0905    2.4572   -0.0652 C   0  0  0  0  0  0  0  0  0  0  0  0
    0.0517    1.1059   -0.2339 C   0  0  0  0  0  0  0  0  0  0  0  0
   -0.2387   -1.1926    0.8100 C   0  0  0  0  0  0  0  0  0  0  0  0
    0.5506   -0.1180    0.0665 C   0  0  0  0  0  0  0  0  0  0  0  0
   -5.4709    0.8484    0.7169 C   0  0  0  0  0  0  0  0  0  0  0  0
    0.7898    2.0731   -1.0647 C   0  0  0  0  0  0  0  0  0  0  0  0
    1.8815   -0.5733   -0.2902 C   0  0  0  0  0  0  0  0  0  0  0  0
   -6.4642    0.2603   -0.2659 C   0  0  0  0  0  0  0  0  0  0  0  0
    2.9569    0.2095   -0.2215 C   0  0  0  0  0  0  0  0  0  0  0  0
   -6.4299   -1.2443   -0.3201 C   0  0  0  0  0  0  0  0  0  0  0  0
    4.3271   -0.2577   -0.6008 C   0  0  0  0  0  0  0  0  0  0  0  0
   -6.6358   -2.1439    0.7025 C   0  0  0  0  0  0  0  0  0  0  0  0
   -6.5209   -3.4931    0.2594 C   0  0  0  0  0  0  0  0  0  0  0  0
   -6.2317   -3.5733   -1.0850 C   0  0  0  0  0  0  0  0  0  0  0  0
    6.9821   -0.7234    0.1200 C   0  0  0  0  0  0  0  0  0  0  0  0
    8.4335   -0.4686    2.1844 C   0  0  0  0  0  0  0  0  0  0  0  0
   -1.5541    0.9729    2.2218 H   0  0  0  0  0  0  0  0  0  0  0  0
   -3.4491    2.3640    1.6739 H   0  0  0  0  0  0  0  0  0  0  0  0
   -4.1445    0.9463   -0.8766 H   0  0  0  0  0  0  0  0  0  0  0  0
   -0.0551   -2.1798    0.3717 H   0  0  0  0  0  0  0  0  0  0  0  0
    0.0863   -1.2275    1.8561 H   0  0  0  0  0  0  0  0  0  0  0  0
    1.9765   -1.6008   -0.6309 H   0  0  0  0  0  0  0  0  0  0  0  0
   -6.3046    0.7044   -1.2561 H   0  0  0  0  0  0  0  0  0  0  0  0
   -7.4656    0.5802    0.0493 H   0  0  0  0  0  0  0  0  0  0  0  0
    2.8924    1.2298    0.1464 H   0  0  0  0  0  0  0  0  0  0  0  0
    1.5007    3.8693   -0.8674 H   0  0  0  0  0  0  0  0  0  0  0  0
    4.7023    0.3671   -1.4182 H   0  0  0  0  0  0  0  0  0  0  0  0
    4.3161   -1.2965   -0.9481 H   0  0  0  0  0  0  0  0  0  0  0  0
   -6.8596   -1.8536    1.7212 H   0  0  0  0  0  0  0  0  0  0  0  0
   -6.6443   -4.3607    0.8943 H   0  0  0  0  0  0  0  0  0  0  0  0
   -6.0915   -4.4663   -1.6776 H   0  0  0  0  0  0  0  0  0  0  0  0
    7.7986   -1.0756    2.8343 H   0  0  0  0  0  0  0  0  0  0  0  0
    8.2305    0.5955    2.3268 H   0  0  0  0  0  0  0  0  0  0  0  0
    9.4852   -0.6751    2.4000 H   0  0  0  0  0  0  0  0  0  0  0  0
  1 14  1  0  0  0  0
  1 18  1  0  0  0  0
  2 25  1  0  0  0  0
  2 29  1  0  0  0  0
  3 26  1  0  0  0  0
  3 30  1  0  0  0  0
  4 16  2  0  0  0  0
  5 21  1  0  0  0  0
  5 41  1  0  0  0  0
  6 20  2  0  0  0  0
  7 21  2  0  0  0  0
  8 14  1  0  0  0  0
  8 16  1  0  0  0  0
  8 17  1  0  0  0  0
  9 15  1  0  0  0  0
  9 20  1  0  0  0  0
  9 34  1  0  0  0  0
 10 12  1  0  0  0  0
 10 30  1  0  0  0  0
 10 31  1  0  0  0  0
 11 13  1  0  0  0  0
 11 30  2  0  0  0  0
 12 13  2  0  0  0  0
 14 15  1  0  0  0  0
 14 32  1  0  0  0  0
 15 16  1  0  0  0  0
 15 33  1  0  0  0  0
 17 19  2  0  0  0  0
 17 21  1  0  0  0  0
 18 19  1  0  0  0  0
 18 35  1  0  0  0  0
 18 36  1  0  0  0  0
 19 22  1  0  0  0  0
 20 23  1  0  0  0  0
 22 24  2  0  0  0  0
 22 37  1  0  0  0  0
 23 25  1  0  0  0  0
 23 38  1  0  0  0  0
 23 39  1  0  0  0  0
 24 26  1  0  0  0  0
 24 40  1  0  0  0  0
 25 27  2  0  0  0  0
 26 42  1  0  0  0  0
 26 43  1  0  0  0  0
 27 28  1  0  0  0  0
 27 44  1  0  0  0  0
 28 29  2  0  0  0  0
 28 45  1  0  0  0  0
 29 46  1  0  0  0  0
 31 47  1  0  0  0  0
 31 48  1  0  0  0  0
 31 49  1  0  0  0  0
M  END
> <PUBCHEM_COMPOUND_CID>
90672731

> <PUBCHEM_CONFORMER_RMSD>
1.2

> <PUBCHEM_CONFORMER_DIVERSEORDER>
1
9
38
59
73
45
29
55
13
89
63
67
31
66
34
80
81
47
77
23
21
16
51
62
69
8
86
64
65
56
27
54
76
87
32
79
42
57
43
75
82
85
58
72
33
25
41
37
11
50
48
14
46
24
88
3
53
26
84
52
28
22
15
74
39
20
71
17
5
36
44
35
4
18
6
10
61
12
68
30
7
19
60
2
83
70
40
78
49

> <PUBCHEM_MMFF94_PARTIAL_CHARGES>
37
1 -0.45
10 0.31
11 -0.34
12 -0.42
14 0.44
15 0.28
16 0.58
17 0.12
18 0.37
19 -0.14
2 -0.08
20 0.57
21 0.71
22 -0.15
23 0.24
24 -0.29
25 -0.14
26 0.37
27 -0.15
28 -0.15
29 -0.11
3 -0.29
30 0.24
31 0.26
34 0.37
37 0.15
4 -0.57
40 0.15
41 0.5
44 0.15
45 0.15
46 0.15
5 -0.65
6 -0.57
7 -0.57
8 -0.39
9 -0.65

> <PUBCHEM_EFFECTIVE_ROTOR_COUNT>
9.6

> <PUBCHEM_PHARMACOPHORE_FEATURES>
11
1 4 acceptor
1 5 acceptor
1 6 acceptor
1 7 acceptor
1 9 donor
3 10 11 30 cation
3 5 7 21 anion
4 8 14 15 16 rings
5 10 11 12 13 30 rings
5 2 25 27 28 29 rings
6 1 8 14 17 18 19 rings

> <PUBCHEM_HEAVY_ATOM_COUNT>
31

> <PUBCHEM_ATOM_DEF_STEREO_COUNT>
2

> <PUBCHEM_ATOM_UDEF_STEREO_COUNT>
0

> <PUBCHEM_BOND_DEF_STEREO_COUNT>
1

> <PUBCHEM_BOND_UDEF_STEREO_COUNT>
0

> <PUBCHEM_ISOTOPIC_ATOM_COUNT>
0

> <PUBCHEM_COMPONENT_COUNT>
1

> <PUBCHEM_CACTVS_TAUTO_COUNT>
4

> <PUBCHEM_CONFORMER_ID>
05678E5B00000001

> <PUBCHEM_MMFF94_ENERGY>
69.7767

> <PUBCHEM_FEATURE_SELFOVERLAP>
56.128

> <PUBCHEM_SHAPE_FINGERPRINT>
10391435 84 18272647935618555719
11135609 99 18343020038354838575
11135926 11 18335417942410681151
11497681 19 18336827490531933438
11621639 183 15768952151467306089
12498461 61 18338229376848488818
12522641 68 17756695348623638429
13782708 43 18201998832870627170
13947947 19 18187092780177956894
14068700 675 18409168826724879941
14279260 333 18408319986964415867
15461852 350 18410297999828864254
1754908 1 17632573847427207554
17686467 74 18339637940793878640
19303781 99 18264486359811823231
19611394 137 17275101760189926723
20028762 73 18411983585034461335
22002106 203 17773024479518297599
2747138 104 17775283846725929560
3711267 37 11815889077151120786
437795 160 18411971473912164530
44802255 64 13695589962339963313
4625314 4 18342174449162034576
54039377 194 18335426811792551691
9953998 17 17703794696030857193

> <PUBCHEM_SHAPE_MULTIPOLES>
596.15
26.23
3.4
1.49
45.63
0.21
-0.03
-23.98
2.5
-6.36
-0.97
0.44
-0.01
-1.31

> <PUBCHEM_SHAPE_SELFOVERLAP>
1229.77

> <PUBCHEM_SHAPE_VOLUME>
342

> <PUBCHEM_COORDINATE_TYPE>
2
5
10

$$$$
