165366420
  -OEChem-04112506423D

 50 52  0     1  0  0  0  0  0999 V2000
   -0.8430    0.3804   -1.1786 S   0  0  0  0  0  0  0  0  0  0  0  0
    0.8842   -2.3211    1.8357 O   0  0  0  0  0  0  0  0  0  0  0  0
    3.8556    0.3696    0.1909 O   0  0  0  0  0  0  0  0  0  0  0  0
    3.3849   -1.3118   -1.3439 O   0  0  0  0  0  0  0  0  0  0  0  0
   -3.6945   -1.9727   -0.8320 O   0  0  0  0  0  0  0  0  0  0  0  0
    5.8037    1.1308    0.8745 O   0  0  0  0  0  0  0  0  0  0  0  0
    5.7896   -0.5666   -0.6777 O   0  0  0  0  0  0  0  0  0  0  0  0
    0.8732   -1.3595   -0.3180 N   0  0  0  0  0  0  0  0  0  0  0  0
   -2.0872   -1.6957    0.8201 N   0  0  0  0  0  0  0  0  0  0  0  0
   -0.3878   -1.3915   -1.0672 C   0  0  1  0  0  0  0  0  0  0  0  0
    0.9492    0.8837   -1.2021 C   0  0  0  0  0  0  0  0  0  0  0  0
    1.6195   -0.1206   -0.2415 C   0  0  2  0  0  0  0  0  0  0  0  0
   -0.9655   -2.2475    0.0748 C   0  0  1  0  0  0  0  0  0  0  0  0
    0.4088   -2.0683    0.7517 C   0  0  0  0  0  0  0  0  0  0  0  0
    1.4435    0.8058   -2.6530 C   0  0  0  0  0  0  0  0  0  0  0  0
    1.0705    2.3179   -0.6834 C   0  0  0  0  0  0  0  0  0  0  0  0
    3.0465   -0.4453   -0.5493 C   0  0  0  0  0  0  0  0  0  0  0  0
   -3.3817   -1.6021    0.2966 C   0  0  0  0  0  0  0  0  0  0  0  0
   -4.3588   -0.9922    1.2824 C   0  0  0  0  0  0  0  0  0  0  0  0
    5.2047    0.2245    0.0496 C   0  0  0  0  0  0  0  0  0  0  0  0
   -5.0023    0.2728    0.7792 C   0  0  0  0  0  0  0  0  0  0  0  0
   -4.4045    1.5072    1.0329 C   0  0  0  0  0  0  0  0  0  0  0  0
   -6.1957    0.2105    0.0599 C   0  0  0  0  0  0  0  0  0  0  0  0
   -5.0002    2.6795    0.5673 C   0  0  0  0  0  0  0  0  0  0  0  0
   -6.7914    1.3826   -0.4057 C   0  0  0  0  0  0  0  0  0  0  0  0
    7.2352    1.1286    0.8633 C   0  0  0  0  0  0  0  0  0  0  0  0
   -6.1937    2.6171   -0.1520 C   0  0  0  0  0  0  0  0  0  0  0  0
    7.7375    2.1839    1.8254 C   0  0  0  0  0  0  0  0  0  0  0  0
   -0.2890   -1.9034   -2.0294 H   0  0  0  0  0  0  0  0  0  0  0  0
    1.5513    0.2195    0.8013 H   0  0  0  0  0  0  0  0  0  0  0  0
   -1.1474   -3.2923   -0.2055 H   0  0  0  0  0  0  0  0  0  0  0  0
    2.4871    1.1325   -2.7290 H   0  0  0  0  0  0  0  0  0  0  0  0
    1.3875   -0.2101   -3.0594 H   0  0  0  0  0  0  0  0  0  0  0  0
    0.8591    1.4607   -3.3105 H   0  0  0  0  0  0  0  0  0  0  0  0
    0.6748    2.4192    0.3339 H   0  0  0  0  0  0  0  0  0  0  0  0
    2.1202    2.6319   -0.6574 H   0  0  0  0  0  0  0  0  0  0  0  0
    0.5331    3.0264   -1.3245 H   0  0  0  0  0  0  0  0  0  0  0  0
   -1.9332   -1.3579    1.7672 H   0  0  0  0  0  0  0  0  0  0  0  0
   -3.8800   -0.7959    2.2493 H   0  0  0  0  0  0  0  0  0  0  0  0
   -5.1273   -1.7479    1.4895 H   0  0  0  0  0  0  0  0  0  0  0  0
   -3.4734    1.5680    1.5900 H   0  0  0  0  0  0  0  0  0  0  0  0
   -6.6703   -0.7453   -0.1457 H   0  0  0  0  0  0  0  0  0  0  0  0
   -4.5343    3.6406    0.7641 H   0  0  0  0  0  0  0  0  0  0  0  0
   -7.7204    1.3341   -0.9663 H   0  0  0  0  0  0  0  0  0  0  0  0
    7.6011    0.1427    1.1713 H   0  0  0  0  0  0  0  0  0  0  0  0
    7.5927    1.3498   -0.1485 H   0  0  0  0  0  0  0  0  0  0  0  0
   -6.6574    3.5298   -0.5148 H   0  0  0  0  0  0  0  0  0  0  0  0
    7.3647    3.1734    1.5409 H   0  0  0  0  0  0  0  0  0  0  0  0
    7.3731    1.9863    2.8389 H   0  0  0  0  0  0  0  0  0  0  0  0
    8.8307    2.2096    1.8419 H   0  0  0  0  0  0  0  0  0  0  0  0
  1 10  1  0  0  0  0
  1 11  1  0  0  0  0
  2 14  2  0  0  0  0
  3 17  1  0  0  0  0
  3 20  1  0  0  0  0
  4 17  2  0  0  0  0
  5 18  2  0  0  0  0
  6 20  1  0  0  0  0
  6 26  1  0  0  0  0
  7 20  2  0  0  0  0
  8 10  1  0  0  0  0
  8 12  1  0  0  0  0
  8 14  1  0  0  0  0
  9 13  1  0  0  0  0
  9 18  1  0  0  0  0
  9 38  1  0  0  0  0
 10 13  1  0  0  0  0
 10 29  1  0  0  0  0
 11 12  1  0  0  0  0
 11 15  1  0  0  0  0
 11 16  1  0  0  0  0
 12 17  1  0  0  0  0
 12 30  1  0  0  0  0
 13 14  1  0  0  0  0
 13 31  1  0  0  0  0
 15 32  1  0  0  0  0
 15 33  1  0  0  0  0
 15 34  1  0  0  0  0
 16 35  1  0  0  0  0
 16 36  1  0  0  0  0
 16 37  1  0  0  0  0
 18 19  1  0  0  0  0
 19 21  1  0  0  0  0
 19 39  1  0  0  0  0
 19 40  1  0  0  0  0
 21 22  2  0  0  0  0
 21 23  1  0  0  0  0
 22 24  1  0  0  0  0
 22 41  1  0  0  0  0
 23 25  2  0  0  0  0
 23 42  1  0  0  0  0
 24 27  2  0  0  0  0
 24 43  1  0  0  0  0
 25 27  1  0  0  0  0
 25 44  1  0  0  0  0
 26 28  1  0  0  0  0
 26 45  1  0  0  0  0
 26 46  1  0  0  0  0
 27 47  1  0  0  0  0
 28 48  1  0  0  0  0
 28 49  1  0  0  0  0
 28 50  1  0  0  0  0
M  END
> <PUBCHEM_COMPOUND_CID>
165366420

> <PUBCHEM_CONFORMER_RMSD>
1

> <PUBCHEM_CONFORMER_DIVERSEORDER>
1
66
48
11
39
60
35
69
63
17
19
28
10
4
62
18
25
38
37
13
12
21
67
55
61
47
50
16
49
36
27
34
56
40
54
68
51
20
29
14
22
57
23
6
59
31
33
32
58
8
2
15
53
7
42
3
9
41
46
65
24
5
43
30
26
52
45
64
44

> <PUBCHEM_MMFF94_PARTIAL_CHARGES>
31
1 -0.45
10 0.44
11 0.23
12 0.36
13 0.28
14 0.58
17 0.66
18 0.57
19 0.2
2 -0.57
20 0.87
21 -0.14
22 -0.15
23 -0.15
24 -0.15
25 -0.15
26 0.28
27 -0.15
3 -0.3
38 0.37
4 -0.57
41 0.15
42 0.15
43 0.15
44 0.15
47 0.15
5 -0.57
6 -0.43
7 -0.57
8 -0.59
9 -0.65

> <PUBCHEM_EFFECTIVE_ROTOR_COUNT>
9.8

> <PUBCHEM_PHARMACOPHORE_FEATURES>
8
1 2 acceptor
1 4 acceptor
1 5 acceptor
1 9 donor
3 11 15 16 hydrophobe
4 8 10 13 14 rings
6 21 22 23 24 25 27 rings
7 1 8 10 11 12 13 14 rings

> <PUBCHEM_HEAVY_ATOM_COUNT>
28

> <PUBCHEM_ATOM_DEF_STEREO_COUNT>
3

> <PUBCHEM_ATOM_UDEF_STEREO_COUNT>
0

> <PUBCHEM_BOND_DEF_STEREO_COUNT>
0

> <PUBCHEM_BOND_UDEF_STEREO_COUNT>
0

> <PUBCHEM_ISOTOPIC_ATOM_COUNT>
0

> <PUBCHEM_COMPONENT_COUNT>
1

> <PUBCHEM_CACTVS_TAUTO_COUNT>
-1

> <PUBCHEM_CONFORMER_ID>
09DB4A9400000001

> <PUBCHEM_MMFF94_ENERGY>
69.2713

> <PUBCHEM_FEATURE_SELFOVERLAP>
44.293

> <PUBCHEM_SHAPE_FINGERPRINT>
10006869 2 18192140512715590866
10554248 39 16056893407706131252
10674148 151 18259990362845791474
10906281 52 18041573550150112302
11089746 13 18410573981537063623
11135609 12 7853572444180710083
117089 54 10014421747065907301
12422481 6 17676766457424430207
12633257 1 16371016225818685387
12838862 33 18260817182330677717
13103583 49 16371016225728949827
13177829 73 18334862718601791271
13257819 101 17632861931878064452
13383665 225 18261691337457073364
13540713 5 17170971528329853414
13673619 4 12324236174660596894
13911987 19 15338844195816987430
14028597 1 16877933915410970392
14347424 109 18410567354777384330
14466204 15 18261115166523091161
14739800 52 18338789027306158323
14767858 380 13614524069192696200
14790565 3 18041577921556407732
14950920 106 15719976712421473321
15082195 135 10159397874479007258
15131766 46 17200496702029717328
15238133 3 17822305577482895711
15420108 30 18334006190454767947
15475509 8 18042424473170811982
1601671 61 18114189605177982943
16664035 7 18197775721063284777
17492 54 14261353548209344366
17627616 140 17901404590558185405
20511986 3 18261104116131154401
20739085 24 17750241300660880347
21033648 29 18130216146920498018
21057603 285 16008741365236288356
21130935 74 18335978744907244506
21150785 3 12175619590549503858
21298829 104 18263928731686930245
21403212 168 18187076252652983253
21424621 283 18409728482659697786
23522609 53 16589174734395736382
23569914 2 17198213964590991400
24771293 8 18336260262775027556
2838139 119 18201434804801383977
33382 64 13045933608515735336
3737641 26 8646499509421785765
484989 97 13613657714233560525
5385378 56 17894908486597490882
54039377 194 10231747929740199265
563151 97 18201147828214934007
59755656 215 18338245842760948166
6328613 192 18187660140582964428
636775 8 11603089537071934984
6371009 1 18260831501767259013
653340 110 18046910373043309045
7226269 152 18343026596448328057
999808 66 12035442839859755448

> <PUBCHEM_SHAPE_MULTIPOLES>
534.9
18.31
2.86
1.61
11.72
0.27
-0.37
14.48
7.62
-1.97
0.67
1.4
0.19
1.41

> <PUBCHEM_SHAPE_SELFOVERLAP>
1113.228

> <PUBCHEM_SHAPE_VOLUME>
306.1

> <PUBCHEM_COORDINATE_TYPE>
2
5
10

$$$$
