6410685
  -OEChem-04172506463D

 42 43  0     0  0  0  0  0  0999 V2000
    0.5423   -1.6736   -0.0987 S   0  0  0  0  0  0  0  0  0  0  0  0
    3.7393   -0.5100    0.5310 O   0  0  0  0  0  0  0  0  0  0  0  0
   -3.2816    3.1409    0.3346 O   0  5  0  0  0  0  0  0  0  0  0  0
   -1.8620    1.5197    0.7534 O   0  0  0  0  0  0  0  0  0  0  0  0
    4.5850    2.1136    0.1555 N   0  0  0  0  0  0  0  0  0  0  0  0
   -2.4583   -0.8598    0.4378 N   0  0  0  0  0  0  0  0  0  0  0  0
   -4.6509   -1.3087   -0.3422 N   0  0  0  0  0  0  0  0  0  0  0  0
   -2.9898    1.9220    0.3803 N   0  3  0  0  0  0  0  0  0  0  0  0
   -5.8786   -0.8871   -0.7484 N   0  0  0  0  0  0  0  0  0  0  0  0
    5.5429    1.0113    0.0771 C   0  0  0  0  0  0  0  0  0  0  0  0
    4.8461   -0.2928   -0.1999 C   0  0  0  0  0  0  0  0  0  0  0  0
    3.2763   -1.7225    0.1285 C   0  0  0  0  0  0  0  0  0  0  0  0
    2.0524   -2.2019    0.7857 C   0  0  0  0  0  0  0  0  0  0  0  0
    5.1210   -1.3039   -1.0543 C   0  0  0  0  0  0  0  0  0  0  0  0
   -0.6705   -2.4420    0.9963 C   0  0  0  0  0  0  0  0  0  0  0  0
    4.0911   -2.2518   -0.8451 C   0  0  0  0  0  0  0  0  0  0  0  0
   -2.0987   -2.2572    0.4990 C   0  0  0  0  0  0  0  0  0  0  0  0
    3.8544    2.2464   -1.1044 C   0  0  0  0  0  0  0  0  0  0  0  0
    5.2697    3.3635    0.4836 C   0  0  0  0  0  0  0  0  0  0  0  0
   -3.7005   -0.4030    0.0284 C   0  0  0  0  0  0  0  0  0  0  0  0
   -3.9690    0.9658   -0.0025 C   0  0  0  0  0  0  0  0  0  0  0  0
   -5.2181    1.3947   -0.4160 C   0  0  0  0  0  0  0  0  0  0  0  0
   -6.1425    0.4363   -0.7798 C   0  0  0  0  0  0  0  0  0  0  0  0
    6.0695    0.9048    1.0339 H   0  0  0  0  0  0  0  0  0  0  0  0
    6.3017    1.1941   -0.6952 H   0  0  0  0  0  0  0  0  0  0  0  0
    2.0054   -1.8253    1.8131 H   0  0  0  0  0  0  0  0  0  0  0  0
    2.0629   -3.2961    0.8317 H   0  0  0  0  0  0  0  0  0  0  0  0
    5.9475   -1.3723   -1.7465 H   0  0  0  0  0  0  0  0  0  0  0  0
   -0.4549   -3.5130    1.0695 H   0  0  0  0  0  0  0  0  0  0  0  0
   -0.5665   -2.0036    1.9949 H   0  0  0  0  0  0  0  0  0  0  0  0
    3.9612   -3.2018   -1.3435 H   0  0  0  0  0  0  0  0  0  0  0  0
   -2.2151   -2.7228   -0.4877 H   0  0  0  0  0  0  0  0  0  0  0  0
   -2.7755   -2.7782    1.1871 H   0  0  0  0  0  0  0  0  0  0  0  0
    3.2085    1.3864   -1.3080 H   0  0  0  0  0  0  0  0  0  0  0  0
    4.5252    2.3904   -1.9598 H   0  0  0  0  0  0  0  0  0  0  0  0
    3.1805    3.1106   -1.0606 H   0  0  0  0  0  0  0  0  0  0  0  0
    4.5483    4.1812    0.5915 H   0  0  0  0  0  0  0  0  0  0  0  0
    6.0022    3.6481   -0.2806 H   0  0  0  0  0  0  0  0  0  0  0  0
    5.7896    3.2771    1.4444 H   0  0  0  0  0  0  0  0  0  0  0  0
   -1.6794   -0.2224    0.3156 H   0  0  0  0  0  0  0  0  0  0  0  0
   -5.4992    2.4415   -0.4659 H   0  0  0  0  0  0  0  0  0  0  0  0
   -7.1377    0.7075   -1.1124 H   0  0  0  0  0  0  0  0  0  0  0  0
  1 13  1  0  0  0  0
  1 15  1  0  0  0  0
  2 11  1  0  0  0  0
  2 12  1  0  0  0  0
  3  8  1  0  0  0  0
  4  8  2  0  0  0  0
  5 10  1  0  0  0  0
  5 18  1  0  0  0  0
  5 19  1  0  0  0  0
  6 17  1  0  0  0  0
  6 20  1  0  0  0  0
  6 40  1  0  0  0  0
  7  9  2  0  0  0  0
  7 20  1  0  0  0  0
  8 21  1  0  0  0  0
  9 23  1  0  0  0  0
 10 11  1  0  0  0  0
 10 24  1  0  0  0  0
 10 25  1  0  0  0  0
 11 14  2  0  0  0  0
 12 13  1  0  0  0  0
 12 16  2  0  0  0  0
 13 26  1  0  0  0  0
 13 27  1  0  0  0  0
 14 16  1  0  0  0  0
 14 28  1  0  0  0  0
 15 17  1  0  0  0  0
 15 29  1  0  0  0  0
 15 30  1  0  0  0  0
 16 31  1  0  0  0  0
 17 32  1  0  0  0  0
 17 33  1  0  0  0  0
 18 34  1  0  0  0  0
 18 35  1  0  0  0  0
 18 36  1  0  0  0  0
 19 37  1  0  0  0  0
 19 38  1  0  0  0  0
 19 39  1  0  0  0  0
 20 21  2  0  0  0  0
 21 22  1  0  0  0  0
 22 23  2  0  0  0  0
 22 41  1  0  0  0  0
 23 42  1  0  0  0  0
M  CHG  2   3  -1   8   1
M  END
> <PUBCHEM_COMPOUND_CID>
6410685

> <PUBCHEM_CONFORMER_RMSD>
1

> <PUBCHEM_CONFORMER_DIVERSEORDER>
1
15
236
192
90
129
10
225
197
230
207
268
231
142
138
184
117
16
44
139
34
206
8
134
273
11
51
120
88
241
204
263
198
283
164
261
17
19
173
5
183
279
287
220
187
108
150
169
14
125
3
80
157
181
118
155
83
97
233
276
137
24
23
62
280
216
170
191
75
48
168
13
214
65
130
116
219
159
227
193
228
100
267
194
211
106
42
248
103
264
6
52
40
70
221
111
238
217
132
257
135
72
73
115
254
161
53
60
152
131
282
27
271
128
250
49
29
229
102
79
59
205
255
46
146
96
95
7
77
210
239
4
119
69
140
9
124
158
165
244
21
260
89
189
2
266
199
286
133
66
178
172
71
272
275
195
26
242
91
141
251
81
281
63
245
12
18
112
30
20
78
149
212
41
36
176
156
123
262
200
182
202
188
243
74
147
37
99
64
256
203
249
43
274
179
85
237
252
122
144
224
218
38
126
259
45
151
57
109
31
68
56
35
247
84
285
154
208
47
145
82
167
143
28
201
148
253
240
232
213
93
136
234
269
110
50
32
67
277
265
284
92
22
101
25
235
258
270
107
209
61
223
175
33
87
39
196
166
180
121
162
174
105
171
186
98
226
127
246
86
113
104
185
190
55
76
54
153
222
215
177
278
163
94
114
58
160

> <PUBCHEM_MMFF94_PARTIAL_CHARGES>
28
1 -0.46
10 0.45
11 -0.04
12 -0.04
13 0.41
14 -0.15
15 0.23
16 -0.15
17 0.37
18 0.27
19 0.27
2 -0.28
20 0.41
21 0.13
22 -0.15
23 0.16
28 0.15
3 -0.52
31 0.15
4 -0.52
40 0.4
41 0.15
42 0.15
5 -0.81
6 -0.87
7 -0.31
8 0.91
9 -0.31

> <PUBCHEM_EFFECTIVE_ROTOR_COUNT>
9

> <PUBCHEM_PHARMACOPHORE_FEATURES>
9
1 2 acceptor
1 3 acceptor
1 3 anion
1 4 acceptor
1 5 cation
1 6 cation
1 6 donor
5 2 11 12 14 16 rings
6 7 9 20 21 22 23 rings

> <PUBCHEM_HEAVY_ATOM_COUNT>
23

> <PUBCHEM_ATOM_DEF_STEREO_COUNT>
0

> <PUBCHEM_ATOM_UDEF_STEREO_COUNT>
0

> <PUBCHEM_BOND_DEF_STEREO_COUNT>
0

> <PUBCHEM_BOND_UDEF_STEREO_COUNT>
0

> <PUBCHEM_ISOTOPIC_ATOM_COUNT>
0

> <PUBCHEM_COMPONENT_COUNT>
1

> <PUBCHEM_CACTVS_TAUTO_COUNT>
2

> <PUBCHEM_CONFORMER_ID>
0061D1BD00000001

> <PUBCHEM_MMFF94_ENERGY>
62.542

> <PUBCHEM_FEATURE_SELFOVERLAP>
45.752

> <PUBCHEM_SHAPE_FINGERPRINT>
10670039 82 18263369083903437510
11089746 13 18334012757670467466
13617811 41 18336814386460385729
14251764 38 18341901753261734388
14528608 73 18409448063770265863
14739800 52 18261097583138134570
15183329 4 18267872679442172974
16994733 274 16443897243119465517
17844677 252 18342183219595853934
20715895 44 18408881871886195426
21315763 129 18411700959359767726
21315764 268 18334571296396466286
21623110 236 18411706469786815609
21734292 116 18410292518949681312
221357 26 18202280277645488043
23559900 14 18341040904730408953
245318 6 17678193761262251396
2838139 119 18335697217646666039
34797466 226 18202569470989990927
351380 3 12535337978818725199
53794403 172 18115036328264135628
54446538 1 18412261701488800958

> <PUBCHEM_SHAPE_MULTIPOLES>
434.67
16.87
3.76
0.94
4.65
1.95
0.09
7.28
3.73
-3.16
-0.57
-0.3
-0.12
0.57

> <PUBCHEM_SHAPE_SELFOVERLAP>
885.033

> <PUBCHEM_SHAPE_VOLUME>
255.4

> <PUBCHEM_COORDINATE_TYPE>
2
5
10

$$$$
