23620052
  -OEChem-04112506483D

 61 63  0     1  0  0  0  0  0999 V2000
   -0.0897   -0.8337   -2.3500 S   0  0  0  0  0  0  0  0  0  0  0  0
    0.1001   -3.1360    1.4017 O   0  0  0  0  0  0  0  0  0  0  0  0
   -3.8820   -1.5268    0.6782 O   0  0  0  0  0  0  0  0  0  0  0  0
   -2.4793    0.1547    1.4154 O   0  0  0  0  0  0  0  0  0  0  0  0
    3.9445   -0.4219   -1.1170 O   0  0  0  0  0  0  0  0  0  0  0  0
   -5.3673    0.2214    1.3946 O   0  0  0  0  0  0  0  0  0  0  0  0
   -5.9840   -0.3077   -0.7582 O   0  0  0  0  0  0  0  0  0  0  0  0
   -0.4426   -1.1809    0.1962 N   0  0  0  0  0  0  0  0  0  0  0  0
    2.7021   -1.2931    0.6390 N   0  0  0  0  0  0  0  0  0  0  0  0
    5.0329    2.5313    0.9556 N   0  0  0  0  0  0  0  0  0  0  0  0
    0.5952   -0.6104   -0.6677 C   0  0  1  0  0  0  0  0  0  0  0  0
   -1.8287   -0.6519   -1.7078 C   0  0  0  0  0  0  0  0  0  0  0  0
   -1.7827   -1.3458   -0.3295 C   0  0  2  0  0  0  0  0  0  0  0  0
    1.5360   -1.7084   -0.1530 C   0  0  2  0  0  0  0  0  0  0  0  0
    0.3375   -2.1855    0.6913 C   0  0  0  0  0  0  0  0  0  0  0  0
   -2.7880   -1.3674   -2.6607 C   0  0  0  0  0  0  0  0  0  0  0  0
   -2.1588    0.8460   -1.6561 C   0  0  0  0  0  0  0  0  0  0  0  0
   -2.7283   -0.8006    0.6928 C   0  0  0  0  0  0  0  0  0  0  0  0
    3.8226   -0.6760    0.0785 C   0  0  0  0  0  0  0  0  0  0  0  0
    4.8765   -0.3511    1.1190 C   0  0  0  0  0  0  0  0  0  0  0  0
   -4.8994   -1.1204    1.6084 C   0  0  0  0  0  0  0  0  0  0  0  0
    6.0750    0.3620    0.5512 C   0  0  0  0  0  0  0  0  0  0  0  0
   -6.3299    1.9604    0.0826 C   0  0  0  0  0  0  0  0  0  0  0  0
    6.1124    1.7492    0.4898 C   0  0  0  0  0  0  0  0  0  0  0  0
    7.1414   -0.4000    0.0906 C   0  0  0  0  0  0  0  0  0  0  0  0
   -5.8888    0.4956    0.1619 C   0  0  0  0  0  0  0  0  0  0  0  0
   -5.1178    2.8692    0.3285 C   0  0  0  0  0  0  0  0  0  0  0  0
   -6.8969    2.2505   -1.3163 C   0  0  0  0  0  0  0  0  0  0  0  0
   -7.4210    2.2277    1.1278 C   0  0  0  0  0  0  0  0  0  0  0  0
    7.2348    2.3850   -0.0410 C   0  0  0  0  0  0  0  0  0  0  0  0
    8.2638    0.2360   -0.4401 C   0  0  0  0  0  0  0  0  0  0  0  0
    8.3105    1.6284   -0.5058 C   0  0  0  0  0  0  0  0  0  0  0  0
    0.8449    0.4191   -0.3936 H   0  0  0  0  0  0  0  0  0  0  0  0
   -1.9502   -2.4278   -0.4226 H   0  0  0  0  0  0  0  0  0  0  0  0
    1.8296   -2.4603   -0.8968 H   0  0  0  0  0  0  0  0  0  0  0  0
   -2.5425   -2.4305   -2.7650 H   0  0  0  0  0  0  0  0  0  0  0  0
   -3.8178   -1.3065   -2.2920 H   0  0  0  0  0  0  0  0  0  0  0  0
   -2.7725   -0.9195   -3.6611 H   0  0  0  0  0  0  0  0  0  0  0  0
   -3.1977    0.9957   -1.3488 H   0  0  0  0  0  0  0  0  0  0  0  0
   -1.5210    1.3927   -0.9531 H   0  0  0  0  0  0  0  0  0  0  0  0
   -2.0512    1.3153   -2.6413 H   0  0  0  0  0  0  0  0  0  0  0  0
    2.7093   -1.4595    1.6428 H   0  0  0  0  0  0  0  0  0  0  0  0
    5.2017   -1.3019    1.5638 H   0  0  0  0  0  0  0  0  0  0  0  0
    4.4247    0.2057    1.9473 H   0  0  0  0  0  0  0  0  0  0  0  0
   -4.5088   -1.1935    2.6293 H   0  0  0  0  0  0  0  0  0  0  0  0
   -5.7431   -1.8140    1.5245 H   0  0  0  0  0  0  0  0  0  0  0  0
    7.1168   -1.4854    0.1336 H   0  0  0  0  0  0  0  0  0  0  0  0
   -4.6745    2.6987    1.3159 H   0  0  0  0  0  0  0  0  0  0  0  0
   -4.3339    2.6999   -0.4153 H   0  0  0  0  0  0  0  0  0  0  0  0
   -5.4025    3.9261    0.2746 H   0  0  0  0  0  0  0  0  0  0  0  0
   -7.2161    3.2947   -1.4074 H   0  0  0  0  0  0  0  0  0  0  0  0
   -7.7635    1.6153   -1.5334 H   0  0  0  0  0  0  0  0  0  0  0  0
   -6.1492    2.0602   -2.0953 H   0  0  0  0  0  0  0  0  0  0  0  0
   -7.0453    2.0875    2.1476 H   0  0  0  0  0  0  0  0  0  0  0  0
   -7.7999    3.2531    1.0533 H   0  0  0  0  0  0  0  0  0  0  0  0
   -8.2673    1.5436    0.9970 H   0  0  0  0  0  0  0  0  0  0  0  0
    7.2844    3.4694   -0.0984 H   0  0  0  0  0  0  0  0  0  0  0  0
    9.1011   -0.3530   -0.8027 H   0  0  0  0  0  0  0  0  0  0  0  0
    9.1843    2.1234   -0.9194 H   0  0  0  0  0  0  0  0  0  0  0  0
    5.0884    3.5395    0.8881 H   0  0  0  0  0  0  0  0  0  0  0  0
    4.1614    2.1106    1.2430 H   0  0  0  0  0  0  0  0  0  0  0  0
  1 11  1  0  0  0  0
  1 12  1  0  0  0  0
  2 15  2  0  0  0  0
  3 18  1  0  0  0  0
  3 21  1  0  0  0  0
  4 18  2  0  0  0  0
  5 19  2  0  0  0  0
  6 21  1  0  0  0  0
  6 26  1  0  0  0  0
  7 26  2  0  0  0  0
  8 11  1  0  0  0  0
  8 13  1  0  0  0  0
  8 15  1  0  0  0  0
  9 14  1  0  0  0  0
  9 19  1  0  0  0  0
  9 42  1  0  0  0  0
 10 24  1  0  0  0  0
 10 60  1  0  0  0  0
 10 61  1  0  0  0  0
 11 14  1  0  0  0  0
 11 33  1  0  0  0  0
 12 13  1  0  0  0  0
 12 16  1  0  0  0  0
 12 17  1  0  0  0  0
 13 18  1  0  0  0  0
 13 34  1  0  0  0  0
 14 15  1  0  0  0  0
 14 35  1  0  0  0  0
 16 36  1  0  0  0  0
 16 37  1  0  0  0  0
 16 38  1  0  0  0  0
 17 39  1  0  0  0  0
 17 40  1  0  0  0  0
 17 41  1  0  0  0  0
 19 20  1  0  0  0  0
 20 22  1  0  0  0  0
 20 43  1  0  0  0  0
 20 44  1  0  0  0  0
 21 45  1  0  0  0  0
 21 46  1  0  0  0  0
 22 24  1  0  0  0  0
 22 25  2  0  0  0  0
 23 26  1  0  0  0  0
 23 27  1  0  0  0  0
 23 28  1  0  0  0  0
 23 29  1  0  0  0  0
 24 30  2  0  0  0  0
 25 31  1  0  0  0  0
 25 47  1  0  0  0  0
 27 48  1  0  0  0  0
 27 49  1  0  0  0  0
 27 50  1  0  0  0  0
 28 51  1  0  0  0  0
 28 52  1  0  0  0  0
 28 53  1  0  0  0  0
 29 54  1  0  0  0  0
 29 55  1  0  0  0  0
 29 56  1  0  0  0  0
 30 32  1  0  0  0  0
 30 57  1  0  0  0  0
 31 32  2  0  0  0  0
 31 58  1  0  0  0  0
 32 59  1  0  0  0  0
M  END
> <PUBCHEM_COMPOUND_CID>
23620052

> <PUBCHEM_CONFORMER_RMSD>
1.2

> <PUBCHEM_CONFORMER_DIVERSEORDER>
1
65
241
293
110
163
181
43
87
208
101
71
198
256
157
193
221
76
124
108
175
248
295
182
73
276
204
282
60
13
67
152
274
9
123
260
285
171
290
226
96
298
195
178
186
262
273
214
85
230
180
252
8
270
68
179
107
114
288
278
207
284
187
189
268
225
23
236
29
35
109
254
211
93
166
131
227
25
234
66
75
197
38
277
191
203
220
56
51
264
4
258
159
170
148
22
119
210
117
238
242
257
160
281
275
112
261
139
113
80
156
279
52
82
77
149
162
251
239
81
39
125
147
128
194
48
37
18
283
63
135
20
246
188
58
143
62
102
99
216
265
104
89
90
173
5
240
126
250
165
12
40
269
19
45
291
218
287
78
212
32
235
133
74
232
92
222
95
158
100
144
137
196
190
69
224
11
217
244
247
209
15
206
7
249
86
168
83
183
296
136
155
115
14
184
176
263
64
138
17
255
105
177
16
50
185
53
134
44
21
141
201
132
84
24
79
228
54
297
98
164
266
34
286
245
6
219
111
121
192
202
272
49
200
70
169
145
174
122
41
46
72
153
103
57
27
106
55
229
213
120
271
199
88
59
294
10
140
280
233
150
289
31
127
116
97
28
47
231
94
36
146
142
215
253
2
61
259
3
243
223
237
42
91
33
172
161
205
267
151
130
154
167
292
118
30
26
129

> <PUBCHEM_MMFF94_PARTIAL_CHARGES>
34
1 -0.45
10 -0.9
11 0.44
12 0.23
13 0.36
14 0.28
15 0.58
18 0.66
19 0.57
2 -0.57
20 0.2
21 0.56
22 -0.14
23 0.06
24 0.1
25 -0.15
26 0.66
3 -0.43
30 -0.15
31 -0.15
32 -0.15
4 -0.57
42 0.37
47 0.15
5 -0.57
57 0.15
58 0.15
59 0.15
6 -0.43
60 0.4
61 0.4
7 -0.57
8 -0.59
9 -0.65

> <PUBCHEM_EFFECTIVE_ROTOR_COUNT>
10.8

> <PUBCHEM_PHARMACOPHORE_FEATURES>
12
1 10 cation
1 10 donor
1 2 acceptor
1 4 acceptor
1 5 acceptor
1 7 acceptor
1 9 donor
3 12 16 17 hydrophobe
4 23 27 28 29 hydrophobe
4 8 11 14 15 rings
6 22 24 25 30 31 32 rings
7 1 8 11 12 13 14 15 rings

> <PUBCHEM_HEAVY_ATOM_COUNT>
32

> <PUBCHEM_ATOM_DEF_STEREO_COUNT>
2

> <PUBCHEM_ATOM_UDEF_STEREO_COUNT>
1

> <PUBCHEM_BOND_DEF_STEREO_COUNT>
0

> <PUBCHEM_BOND_UDEF_STEREO_COUNT>
0

> <PUBCHEM_ISOTOPIC_ATOM_COUNT>
0

> <PUBCHEM_COMPONENT_COUNT>
1

> <PUBCHEM_CACTVS_TAUTO_COUNT>
2

> <PUBCHEM_CONFORMER_ID>
016869D400000001

> <PUBCHEM_MMFF94_ENERGY>
93.4354

> <PUBCHEM_FEATURE_SELFOVERLAP>
64.629

> <PUBCHEM_SHAPE_FINGERPRINT>
10 15 17749107764154044153
10554248 39 16845014516047862286
10670039 82 15554450669639836323
11456790 92 18334851728487467328
11991303 11 17060047185844277943
12035758 1 16588028991871769775
12422481 6 16732987488286630631
13540713 4 16155660230289115631
13668630 136 10159704586282096112
13685833 64 8286201643658774450
13782708 43 7997974565825707190
13911987 19 17275100588544555977
14068700 675 10953748793732715799
14931854 50 14620797076346946718
15183329 4 15195564585244095814
15352257 5 8862940580498516552
15461852 350 18059853995849955639
15510800 12 10881672469870489632
16994733 274 18272080608840005506
18335252 114 17918274243191624912
19958102 18 14979962475735748580
2026 5 9151175342065525785
20691028 202 18336263552662109576
21033648 29 18041006137003236962
21130935 74 17749107768491860162
21424621 283 18408885131233928282
21585482 111 18262516975003208069
22122407 14 18411426132449190840
23576562 1 17560223855973150793
24771293 8 18187366540586126775
2838139 119 18131067155803541560
3103668 31 15409462593616534101
3383291 50 12612759012052054361
3711267 37 18263658393544736876
4107672 100 17418085564102512567
4169191 19 18410855426322811865
437795 150 14404889333077388669
44802255 64 17703789219747452439
504579 68 15985103007472388332
5080951 261 13840251582152197895
5104073 3 16660905696592490770
5718773 13 9511460022203818712
59755656 520 18411701028285369114
6608658 132 16272214046411332169
9689198 14 18411985762803744288
9953998 17 17240765077485783405
999808 66 8646769993297377633

> <PUBCHEM_SHAPE_MULTIPOLES>
612.24
24.37
2.83
1.79
22.85
1.09
-0.86
21.51
2.4
-1.37
0.49
-2.12
-0.65
-0.1

> <PUBCHEM_SHAPE_SELFOVERLAP>
1272.184

> <PUBCHEM_SHAPE_VOLUME>
352.7

> <PUBCHEM_COORDINATE_TYPE>
2
5
10

$$$$
