162443215
  -OEChem-04152517493D

 55 59  0     0  0  0  0  0  0999 V2000
    6.3203   -4.1672    1.8284 S   0  0  0  0  0  0  0  0  0  0  0  0
   -7.7552   -3.1844    0.3564 F   0  0  0  0  0  0  0  0  0  0  0  0
   -6.7024   -3.5141   -1.5104 F   0  0  0  0  0  0  0  0  0  0  0  0
   -5.7138   -1.1448   -0.1115 O   0  0  0  0  0  0  0  0  0  0  0  0
    5.1855   -2.0903   -0.3113 N   0  0  0  0  0  0  0  0  0  0  0  0
    0.4303    2.3299    1.2372 N   0  0  0  0  0  0  0  0  0  0  0  0
    1.4992    3.4007   -0.2919 N   0  0  0  0  0  0  0  0  0  0  0  0
    0.4241    3.4439    0.4873 N   0  0  0  0  0  0  0  0  0  0  0  0
   -6.4178    0.8427   -0.8590 N   0  0  0  0  0  0  0  0  0  0  0  0
   -7.3555   -0.1063   -1.2207 N   0  0  0  0  0  0  0  0  0  0  0  0
    5.0092   -3.5348   -0.5257 C   0  0  0  0  0  0  0  0  0  0  0  0
    6.4358   -1.7961    0.4056 C   0  0  0  0  0  0  0  0  0  0  0  0
    5.1667   -1.3868   -1.5960 C   0  0  0  0  0  0  0  0  0  0  0  0
    4.8473   -4.3082    0.7810 C   0  0  0  0  0  0  0  0  0  0  0  0
    6.4466   -2.3587    1.8251 C   0  0  0  0  0  0  0  0  0  0  0  0
    4.8595    0.0776   -1.4288 C   0  0  0  0  0  0  0  0  0  0  0  0
    3.6756    0.4761   -0.8081 C   0  0  0  0  0  0  0  0  0  0  0  0
    5.7593    1.0361   -1.8951 C   0  0  0  0  0  0  0  0  0  0  0  0
    3.3916    1.8330   -0.6536 C   0  0  0  0  0  0  0  0  0  0  0  0
    2.1730    2.2437   -0.0144 C   0  0  0  0  0  0  0  0  0  0  0  0
    5.4753    2.3929   -1.7406 C   0  0  0  0  0  0  0  0  0  0  0  0
    4.2914    2.7914   -1.1199 C   0  0  0  0  0  0  0  0  0  0  0  0
   -0.6197    2.0804    2.1917 C   0  0  0  0  0  0  0  0  0  0  0  0
    1.5066    1.5445    0.9603 C   0  0  0  0  0  0  0  0  0  0  0  0
   -1.8965    1.5840    1.5595 C   0  0  0  0  0  0  0  0  0  0  0  0
   -2.7520    2.4806    0.9193 C   0  0  0  0  0  0  0  0  0  0  0  0
   -2.2214    0.2287    1.6152 C   0  0  0  0  0  0  0  0  0  0  0  0
   -4.2573    0.6665    0.3904 C   0  0  0  0  0  0  0  0  0  0  0  0
   -3.9325    2.0218    0.3347 C   0  0  0  0  0  0  0  0  0  0  0  0
   -3.4018   -0.2301    1.0307 C   0  0  0  0  0  0  0  0  0  0  0  0
   -5.4779    0.1918   -0.2143 C   0  0  0  0  0  0  0  0  0  0  0  0
   -6.9036   -1.2508   -0.7639 C   0  0  0  0  0  0  0  0  0  0  0  0
   -7.4897   -2.5936   -0.8576 C   0  0  0  0  0  0  0  0  0  0  0  0
    5.8364   -3.9501   -1.1173 H   0  0  0  0  0  0  0  0  0  0  0  0
    4.0927   -3.7035   -1.1059 H   0  0  0  0  0  0  0  0  0  0  0  0
    6.5648   -0.7114    0.5049 H   0  0  0  0  0  0  0  0  0  0  0  0
    7.3078   -2.1631   -0.1532 H   0  0  0  0  0  0  0  0  0  0  0  0
    6.1032   -1.5407   -2.1489 H   0  0  0  0  0  0  0  0  0  0  0  0
    4.3719   -1.7859   -2.2418 H   0  0  0  0  0  0  0  0  0  0  0  0
    4.6818   -5.3687    0.5651 H   0  0  0  0  0  0  0  0  0  0  0  0
    3.9769   -3.9497    1.3415 H   0  0  0  0  0  0  0  0  0  0  0  0
    5.6227   -1.9431    2.4159 H   0  0  0  0  0  0  0  0  0  0  0  0
    7.3796   -2.0810    2.3262 H   0  0  0  0  0  0  0  0  0  0  0  0
    2.9767   -0.2841   -0.4660 H   0  0  0  0  0  0  0  0  0  0  0  0
    6.6860    0.7404   -2.3795 H   0  0  0  0  0  0  0  0  0  0  0  0
    4.0921    3.8544   -1.0069 H   0  0  0  0  0  0  0  0  0  0  0  0
    6.1766    3.1391   -2.1026 H   0  0  0  0  0  0  0  0  0  0  0  0
   -0.8044    3.0127    2.7397 H   0  0  0  0  0  0  0  0  0  0  0  0
   -0.2437    1.3594    2.9276 H   0  0  0  0  0  0  0  0  0  0  0  0
    1.6889    0.6056    1.4650 H   0  0  0  0  0  0  0  0  0  0  0  0
   -2.5145    3.5399    0.8731 H   0  0  0  0  0  0  0  0  0  0  0  0
   -1.5623   -0.4802    2.1092 H   0  0  0  0  0  0  0  0  0  0  0  0
   -4.5852    2.7382   -0.1582 H   0  0  0  0  0  0  0  0  0  0  0  0
   -3.6210   -1.2929    1.0938 H   0  0  0  0  0  0  0  0  0  0  0  0
   -8.4386   -2.5526   -1.4000 H   0  0  0  0  0  0  0  0  0  0  0  0
  1 14  1  0  0  0  0
  1 15  1  0  0  0  0
  2 33  1  0  0  0  0
  3 33  1  0  0  0  0
  4 31  1  0  0  0  0
  4 32  1  0  0  0  0
  5 11  1  0  0  0  0
  5 12  1  0  0  0  0
  5 13  1  0  0  0  0
  6  8  1  0  0  0  0
  6 23  1  0  0  0  0
  6 24  1  0  0  0  0
  7  8  2  0  0  0  0
  7 20  1  0  0  0  0
  9 10  1  0  0  0  0
  9 31  2  0  0  0  0
 10 32  2  0  0  0  0
 11 14  1  0  0  0  0
 11 34  1  0  0  0  0
 11 35  1  0  0  0  0
 12 15  1  0  0  0  0
 12 36  1  0  0  0  0
 12 37  1  0  0  0  0
 13 16  1  0  0  0  0
 13 38  1  0  0  0  0
 13 39  1  0  0  0  0
 14 40  1  0  0  0  0
 14 41  1  0  0  0  0
 15 42  1  0  0  0  0
 15 43  1  0  0  0  0
 16 17  2  0  0  0  0
 16 18  1  0  0  0  0
 17 19  1  0  0  0  0
 17 44  1  0  0  0  0
 18 21  2  0  0  0  0
 18 45  1  0  0  0  0
 19 20  1  0  0  0  0
 19 22  2  0  0  0  0
 20 24  2  0  0  0  0
 21 22  1  0  0  0  0
 21 47  1  0  0  0  0
 22 46  1  0  0  0  0
 23 25  1  0  0  0  0
 23 48  1  0  0  0  0
 23 49  1  0  0  0  0
 24 50  1  0  0  0  0
 25 26  2  0  0  0  0
 25 27  1  0  0  0  0
 26 29  1  0  0  0  0
 26 51  1  0  0  0  0
 27 30  2  0  0  0  0
 27 52  1  0  0  0  0
 28 29  2  0  0  0  0
 28 30  1  0  0  0  0
 28 31  1  0  0  0  0
 29 53  1  0  0  0  0
 30 54  1  0  0  0  0
 32 33  1  0  0  0  0
 33 55  1  0  0  0  0
M  END
> <PUBCHEM_COMPOUND_CID>
162443215

> <PUBCHEM_CONFORMER_RMSD>
1

> <PUBCHEM_CONFORMER_DIVERSEORDER>
1
111
130
156
91
40
137
120
50
175
141
86
45
104
128
153
185
94
181
150
110
183
63
127
165
64
159
124
176
114
121
109
59
136
162
138
171
85
101
53
132
164
14
96
88
31
163
13
172
47
152
92
182
34
177
151
48
74
44
160
122
116
35
167
82
67
41
29
173
69
102
3
144
143
123
43
100
60
125
90
83
12
56
93
57
154
17
103
22
134
52
178
184
79
89
161
106
157
99
158
166
105
10
16
174
32
133
146
168
142
61
117
97
62
37
28
80
38
11
42
25
155
2
30
129
39
71
81
179
145
27
95
119
72
131
66
149
113
26
4
23
18
55
180
77
118
108
51
170
98
78
36
126
112
107
140
68
70
19
73
75
65
135
76
87
21
7
84
147
115
58
54
49
169
15
33
139
8
148
9
20
24
5
6
46

> <PUBCHEM_MMFF94_PARTIAL_CHARGES>
42
1 -0.46
10 -0.34
11 0.27
12 0.27
13 0.41
14 0.23
15 0.23
16 -0.14
17 -0.15
18 -0.15
19 0.05
2 -0.34
20 0.17
21 -0.15
22 -0.15
23 0.4
24 -0.3
25 -0.14
26 -0.15
27 -0.15
28 0.05
29 -0.15
3 -0.34
30 -0.15
31 0.43
32 0.3
33 0.86
4 -0.28
44 0.15
45 0.15
46 0.15
47 0.15
5 -0.81
50 0.15
51 0.15
52 0.15
53 0.15
54 0.15
6 0.31
7 -0.23
8 -0.42
9 -0.34

> <PUBCHEM_EFFECTIVE_ROTOR_COUNT>
8.2

> <PUBCHEM_PHARMACOPHORE_FEATURES>
6
1 5 cation
5 4 9 10 31 32 rings
5 6 7 8 20 24 rings
6 1 5 11 12 14 15 rings
6 16 17 18 19 21 22 rings
6 25 26 27 28 29 30 rings

> <PUBCHEM_HEAVY_ATOM_COUNT>
33

> <PUBCHEM_ATOM_DEF_STEREO_COUNT>
0

> <PUBCHEM_ATOM_UDEF_STEREO_COUNT>
0

> <PUBCHEM_BOND_DEF_STEREO_COUNT>
0

> <PUBCHEM_BOND_UDEF_STEREO_COUNT>
0

> <PUBCHEM_ISOTOPIC_ATOM_COUNT>
0

> <PUBCHEM_COMPONENT_COUNT>
1

> <PUBCHEM_CACTVS_TAUTO_COUNT>
-1

> <PUBCHEM_CONFORMER_ID>
09AEAFCF00000001

> <PUBCHEM_MMFF94_ENERGY>
61.0966

> <PUBCHEM_FEATURE_SELFOVERLAP>
30.45

> <PUBCHEM_SHAPE_FINGERPRINT>
10533779 1 11675150544828518255
10622 236 18341052900241243816
10674148 151 10881697776276564490
10693767 8 18335135393132659368
10883706 17 18409731806553051450
11103572 155 18338813277567295539
11227150 75 17823966841649738122
11399510 152 15051178857215376426
11475781 23 15357705214633957204
11476731 50 18192148206416846962
11478447 62 17969776390213657690
11607047 403 18271229634960720336
11801155 225 18128813243067524983
11828042 38 17968387792294432419
1200032 147 11887370506032311134
12013929 112 17968923195207526061
12061779 8 9654992482382345746
12661589 4 18201434834813401202
1361 4 18341896337550437517
13782708 43 18342176691762509341
13944108 23 8718831998878699858
14068700 675 18202284675887561545
14347332 77 18342743996544055129
15183329 4 18335708242843597597
15230672 131 18343019974763941119
15338160 23 9726760891681971025
15350500 16 17823129035479993394
15467298 65 18342466902449888543
15684393 108 18263646328732741111
16628084 112 18410294705605038711
17134984 74 18339929328438725908
17324776 126 17973438807136866986
19303781 99 18200579385166496407
19304671 126 14707503498699556686
19315092 285 17989208110497327472
19841028 212 18413109454775812278
19958102 18 17967822634304891056
20028762 73 18199475376966710054
20105231 36 18188211009969801147
20691028 202 8502366715842025212
20737093 269 13574212262410941475
20775438 99 18260271858848907306
208703 8 18202005382986021206
21458453 9 13038892365725981996
21585481 104 17822007589206596253
21585483 132 18410294671039747230
21895439 516 18113898278306255803
23569914 152 17900801783402520565
24983565 74 17559106804068561407
25025965 108 17537714401154583402
2748736 6 11675148307413566341
3504750 166 17979640026931245664
397830 11 12751233697156061085
3986486 107 8357675466480686210
4173938 188 18131067178328060592
42767 23 18335420136558545766
42767 39 18336255769695696154
437795 139 18202280256159959640
439807 62 18343306994253267565
44280116 191 10015281577901357474
4440575 13 18411696591663046430
45266715 3 18336263561220279336
4756088 132 16819673826756200322
50009960 94 18270665515700046702
5223283 242 17095532746910331540
5718773 13 18272369767576570293
5719381 36 17987788744070507879
57591035 28 11243899935774691696
5951187 136 12324542943348553958
6058803 2 18125187981885618840
6201320 77 17826265001508929651
6201460 15 18196375810169143582
6636735 143 12463581686228055133
6677587 24 16083092656720071454
6697151 62 17274809282441349177
96874 4 18337951173961189058

> <PUBCHEM_SHAPE_MULTIPOLES>
632.67
24.08
5.62
1.92
27.57
4.01
0.27
26.72
-8
-5.79
0.64
-1.49
0.03
-6.43

> <PUBCHEM_SHAPE_SELFOVERLAP>
1363.756

> <PUBCHEM_SHAPE_VOLUME>
353.5

> <PUBCHEM_COORDINATE_TYPE>
2
5
10

$$$$
