@<TRIPOS>MOLECULE
lig
 74 77 0 0 0
SMALL
GASTEIGER

@<TRIPOS>ATOM
      1 O           2.0620    2.3476    1.1996 O.3     1  UNL11      -0.4605
      2 O           2.3508    4.0490   -0.2476 O.2     1  UNL11      -0.2501
      3 O           4.3760    6.3788    2.3000 O.3     1  UNL11      -0.3939
      4 O           6.9993   -1.1478    5.0768 O.2     1  UNL11      -0.4920
      5 N           1.3463   -1.2988   -0.1468 N.4     1  UNL11       0.2458
      6 C           0.0287   -0.6710    0.1540 C.3     1  UNL11      -0.0154
      7 C           1.8601   -0.5080   -1.2893 C.3     1  UNL11      -0.0154
      8 C          -0.6000   -0.4603   -1.2500 C.3     1  UNL11      -0.0044
      9 C           0.6168   -0.4761   -2.2073 C.3     1  UNL11      -0.0044
     10 C           0.3000    0.6625    0.9421 C.3     1  UNL11       0.0278
     11 C           2.3735    0.8570   -0.7069 C.3     1  UNL11       0.0278
     12 C           1.3538    1.5966    0.2245 C.3     1  UNL11       0.1133
     13 C           2.2378   -1.1339    1.0002 C.3     1  UNL11      -0.0258
     14 C           1.0927   -2.6744   -0.5721 C.3     1  UNL11      -0.0407
     15 C           3.5907   -1.7784    0.6914 C.3     1  UNL11       0.0128
     16 C           4.4809   -1.6137    1.8368 C.3     1  UNL11      -0.0421
     17 C           2.5357    3.5743    0.8938 C.2     1  UNL11       0.3171
     18 C           4.1298   -2.1454    3.0721 C.3     1  UNL11      -0.0549
     19 C           5.6797   -0.9252    1.6919 C.3     1  UNL11      -0.0549
     20 C           3.2638    4.3465    1.8964 C.3     1  UNL11       0.1044
     21 C           4.9774   -1.9886    4.1626 C.3     1  UNL11      -0.0197
     22 C           6.5273   -0.7683    2.7824 C.3     1  UNL11      -0.0197
     23 C           3.6678    5.6278    1.3249 C.3     1  UNL11       0.0612
     24 C           4.5065    3.5692    2.3352 C.3     1  UNL11      -0.0315
     25 C           6.1761   -1.3001    4.0177 C.3     1  UNL11       0.1205
     26 C           4.6631    3.2033    3.6670 C.3     1  UNL11      -0.0577
     27 C           5.4789    3.2290    1.4020 C.3     1  UNL11      -0.0577
     28 C           5.7921    2.4972    4.0656 C.3     1  UNL11      -0.0615
     29 C           6.6079    2.5229    1.8006 C.3     1  UNL11      -0.0615
     30 C           7.9069   -2.2385    5.1316 C.3     1  UNL11       0.0896
     31 C           6.7645    2.1569    3.1324 C.3     1  UNL11      -0.0617
     32 C           8.8399   -2.0659    6.3318 C.3     1  UNL11      -0.0189
     33 C           9.8177   -3.2412    6.3909 C.3     1  UNL11      -0.0528
     34 C          10.7507   -3.0686    7.5912 C.3     1  UNL11      -0.0652
     35 H          -0.6015   -1.3498    0.7533 H       1  UNL11       0.0853
     36 H           2.7005   -0.9697   -1.8077 H       1  UNL11       0.0853
     37 H          -1.2568   -1.2983   -1.4835 H       1  UNL11       0.0322
     38 H          -1.1425    0.4850   -1.2617 H       1  UNL11       0.0322
     39 H           0.5899   -1.3810   -2.8142 H       1  UNL11       0.0322
     40 H           0.6227    0.3732   -2.8906 H       1  UNL11       0.0322
     41 H          -0.6366    1.2046    1.0724 H       1  UNL11       0.0356
     42 H           0.7176    0.3743    1.9067 H       1  UNL11       0.0356
     43 H           2.6617    1.5160   -1.5258 H       1  UNL11       0.0356
     44 H           3.2481    0.6148   -0.1032 H       1  UNL11       0.0356
     45 H           0.7747    2.2488   -0.4293 H       1  UNL11       0.0738
     46 H           1.7978   -1.6137    1.8744 H       1  UNL11       0.0818
     47 H           2.3787   -0.0718    1.2011 H       1  UNL11       0.0818
     48 H           2.0392   -3.1643   -0.8007 H       1  UNL11       0.0778
     49 H           0.4621   -2.6694   -1.4611 H       1  UNL11       0.0778
     50 H           0.5878   -3.2150    0.2285 H       1  UNL11       0.0778
     51 H           3.4497   -2.8404    0.4905 H       1  UNL11       0.0365
     52 H           4.0307   -1.2985   -0.1828 H       1  UNL11       0.0365
     53 H           3.2501   -2.6507    3.1784 H       1  UNL11       0.0621
     54 H           5.9374   -0.5350    0.7854 H       1  UNL11       0.0621
     55 H           2.6205    4.5201    2.7590 H       1  UNL11       0.0485
     56 H           4.7197   -2.3788    5.0691 H       1  UNL11       0.0654
     57 H           7.4070   -0.2631    2.6760 H       1  UNL11       0.0654
     58 H           2.7825    6.1815    1.0123 H       1  UNL11       0.0568
     59 H           4.3111    5.4542    0.4623 H       1  UNL11       0.0568
     60 H           3.9496    3.4529    4.3517 H       1  UNL11       0.0621
     61 H           5.3640    3.4975    0.4247 H       1  UNL11       0.0621
     62 H           4.6472    7.2388    1.9164 H       1  UNL11       0.2094
     63 H           5.9071    2.2287    5.0428 H       1  UNL11       0.0618
     64 H           7.3214    2.2732    1.1158 H       1  UNL11       0.0618
     65 H           7.3499   -3.1697    5.2353 H       1  UNL11       0.0696
     66 H           8.4958   -2.2676    4.2148 H       1  UNL11       0.0696
     67 H           7.5930    1.6388    3.4249 H       1  UNL11       0.0618
     68 H           8.2509   -2.0369    7.2486 H       1  UNL11       0.0298
     69 H           9.3968   -1.1347    6.2282 H       1  UNL11       0.0298
     70 H           9.2607   -4.1724    6.4946 H       1  UNL11       0.0264
     71 H          10.4066   -3.2702    5.4741 H       1  UNL11       0.0264
     72 H          11.4473   -3.9059    7.6332 H       1  UNL11       0.0230
     73 H          10.1617   -3.0395    8.5079 H       1  UNL11       0.0230
     74 H          11.3076   -2.1374    7.4875 H       1  UNL11       0.0230
@<TRIPOS>UNITY_ATOM_ATTR
5 1
charge 1
@<TRIPOS>BOND
     1    12     1    1
     2     1    17    1
     3     2    17    2
     4     3    23    1
     5     3    62    1
     6     4    25    1
     7     4    30    1
     8     5     6    1
     9     5     7    1
    10     5    13    1
    11     5    14    1
    12     6     8    1
    13     6    10    1
    14     6    35    1
    15     7     9    1
    16     7    11    1
    17     7    36    1
    18     8     9    1
    19     8    37    1
    20     8    38    1
    21     9    39    1
    22     9    40    1
    23    10    12    1
    24    10    41    1
    25    10    42    1
    26    11    12    1
    27    11    43    1
    28    11    44    1
    29    12    45    1
    30    13    15    1
    31    13    46    1
    32    13    47    1
    33    14    48    1
    34    14    49    1
    35    14    50    1
    36    15    16    1
    37    15    51    1
    38    15    52    1
    39    16    18   ar
    40    16    19   ar
    41    20    17    1
    42    18    21   ar
    43    18    53    1
    44    19    22   ar
    45    19    54    1
    46    20    23    1
    47    20    24    1
    48    20    55    1
    49    21    25   ar
    50    21    56    1
    51    22    25   ar
    52    22    57    1
    53    23    58    1
    54    23    59    1
    55    24    26   ar
    56    24    27   ar
    57    26    28   ar
    58    26    60    1
    59    27    29   ar
    60    27    61    1
    61    28    31   ar
    62    28    63    1
    63    29    31   ar
    64    29    64    1
    65    30    32    1
    66    30    65    1
    67    30    66    1
    68    31    67    1
    69    32    33    1
    70    32    68    1
    71    32    69    1
    72    33    34    1
    73    33    70    1
    74    33    71    1
    75    34    72    1
    76    34    73    1
    77    34    74    1
