22833297
  Mrv15b2304172506253D          

 74 77  0  0  1  0            999 V2000
    2.0620    2.3476    1.1996 O   0  0  0  0  0  0  0  0  0  0  0  0
    2.3508    4.0490   -0.2476 O   0  0  0  0  0  0  0  0  0  0  0  0
    4.3760    6.3788    2.3000 O   0  0  0  0  0  0  0  0  0  0  0  0
    6.9993   -1.1478    5.0768 O   0  0  0  0  0  0  0  0  0  0  0  0
    1.3463   -1.2988   -0.1468 N   0  3  1  0  0  0  0  0  0  0  0  0
    0.0287   -0.6710    0.1540 C   0  0  2  0  0  0  0  0  0  0  0  0
    1.8601   -0.5080   -1.2893 C   0  0  1  0  0  0  0  0  0  0  0  0
   -0.6000   -0.4603   -1.2500 C   0  0  1  0  0  0  0  0  0  0  0  0
    0.6168   -0.4761   -2.2073 C   0  0  2  0  0  0  0  0  0  0  0  0
    0.3000    0.6625    0.9421 C   0  0  1  0  0  0  0  0  0  0  0  0
    2.3735    0.8570   -0.7069 C   0  0  2  0  0  0  0  0  0  0  0  0
    1.3538    1.5966    0.2245 C   0  0  2  0  0  0  0  0  0  0  0  0
    2.2378   -1.1339    1.0002 C   0  0  2  0  0  0  0  0  0  0  0  0
    1.0927   -2.6744   -0.5721 C   0  0  0  0  0  0  0  0  0  0  0  0
    3.5907   -1.7784    0.6914 C   0  0  1  0  0  0  0  0  0  0  0  0
    4.4809   -1.6137    1.8368 C   0  0  0  0  0  0  0  0  0  0  0  0
    2.5357    3.5743    0.8938 C   0  0  0  0  0  0  0  0  0  0  0  0
    4.1298   -2.1454    3.0721 C   0  0  0  0  0  0  0  0  0  0  0  0
    5.6797   -0.9252    1.6919 C   0  0  0  0  0  0  0  0  0  0  0  0
    3.2638    4.3465    1.8964 C   0  0  2  0  0  0  0  0  0  0  0  0
    4.9774   -1.9886    4.1626 C   0  0  0  0  0  0  0  0  0  0  0  0
    6.5273   -0.7683    2.7824 C   0  0  0  0  0  0  0  0  0  0  0  0
    3.6678    5.6278    1.3249 C   0  0  1  0  0  0  0  0  0  0  0  0
    4.5065    3.5692    2.3352 C   0  0  0  0  0  0  0  0  0  0  0  0
    6.1761   -1.3001    4.0177 C   0  0  0  0  0  0  0  0  0  0  0  0
    4.6631    3.2033    3.6670 C   0  0  0  0  0  0  0  0  0  0  0  0
    5.4789    3.2290    1.4020 C   0  0  0  0  0  0  0  0  0  0  0  0
    5.7921    2.4972    4.0656 C   0  0  0  0  0  0  0  0  0  0  0  0
    6.6079    2.5229    1.8006 C   0  0  0  0  0  0  0  0  0  0  0  0
    7.9069   -2.2385    5.1316 C   0  0  1  0  0  0  0  0  0  0  0  0
    6.7645    2.1569    3.1324 C   0  0  0  0  0  0  0  0  0  0  0  0
    8.8399   -2.0659    6.3318 C   0  0  2  0  0  0  0  0  0  0  0  0
    9.8177   -3.2412    6.3909 C   0  0  1  0  0  0  0  0  0  0  0  0
   10.7507   -3.0686    7.5912 C   0  0  0  0  0  0  0  0  0  0  0  0
   -0.6015   -1.3498    0.7533 H   0  0  0  0  0  0  0  0  0  0  0  0
    2.7005   -0.9697   -1.8077 H   0  0  0  0  0  0  0  0  0  0  0  0
   -1.2568   -1.2983   -1.4835 H   0  0  0  0  0  0  0  0  0  0  0  0
   -1.1425    0.4850   -1.2617 H   0  0  0  0  0  0  0  0  0  0  0  0
    0.5899   -1.3810   -2.8142 H   0  0  0  0  0  0  0  0  0  0  0  0
    0.6227    0.3732   -2.8906 H   0  0  0  0  0  0  0  0  0  0  0  0
   -0.6366    1.2046    1.0724 H   0  0  0  0  0  0  0  0  0  0  0  0
    0.7176    0.3743    1.9067 H   0  0  0  0  0  0  0  0  0  0  0  0
    2.6617    1.5160   -1.5258 H   0  0  0  0  0  0  0  0  0  0  0  0
    3.2481    0.6148   -0.1032 H   0  0  0  0  0  0  0  0  0  0  0  0
    0.7747    2.2488   -0.4293 H   0  0  0  0  0  0  0  0  0  0  0  0
    1.7978   -1.6137    1.8744 H   0  0  0  0  0  0  0  0  0  0  0  0
    2.3787   -0.0718    1.2011 H   0  0  0  0  0  0  0  0  0  0  0  0
    2.0392   -3.1643   -0.8007 H   0  0  0  0  0  0  0  0  0  0  0  0
    0.4621   -2.6694   -1.4611 H   0  0  0  0  0  0  0  0  0  0  0  0
    0.5878   -3.2150    0.2285 H   0  0  0  0  0  0  0  0  0  0  0  0
    3.4497   -2.8404    0.4905 H   0  0  0  0  0  0  0  0  0  0  0  0
    4.0307   -1.2985   -0.1828 H   0  0  0  0  0  0  0  0  0  0  0  0
    3.2501   -2.6507    3.1784 H   0  0  0  0  0  0  0  0  0  0  0  0
    5.9374   -0.5350    0.7854 H   0  0  0  0  0  0  0  0  0  0  0  0
    2.6205    4.5201    2.7590 H   0  0  0  0  0  0  0  0  0  0  0  0
    4.7197   -2.3788    5.0691 H   0  0  0  0  0  0  0  0  0  0  0  0
    7.4070   -0.2631    2.6760 H   0  0  0  0  0  0  0  0  0  0  0  0
    2.7825    6.1815    1.0123 H   0  0  0  0  0  0  0  0  0  0  0  0
    4.3111    5.4542    0.4623 H   0  0  0  0  0  0  0  0  0  0  0  0
    3.9496    3.4529    4.3517 H   0  0  0  0  0  0  0  0  0  0  0  0
    5.3640    3.4975    0.4247 H   0  0  0  0  0  0  0  0  0  0  0  0
    4.6472    7.2388    1.9164 H   0  0  0  0  0  0  0  0  0  0  0  0
    5.9071    2.2287    5.0428 H   0  0  0  0  0  0  0  0  0  0  0  0
    7.3214    2.2732    1.1158 H   0  0  0  0  0  0  0  0  0  0  0  0
    7.3499   -3.1697    5.2353 H   0  0  0  0  0  0  0  0  0  0  0  0
    8.4958   -2.2676    4.2148 H   0  0  0  0  0  0  0  0  0  0  0  0
    7.5930    1.6388    3.4249 H   0  0  0  0  0  0  0  0  0  0  0  0
    8.2509   -2.0369    7.2486 H   0  0  0  0  0  0  0  0  0  0  0  0
    9.3968   -1.1347    6.2282 H   0  0  0  0  0  0  0  0  0  0  0  0
    9.2607   -4.1724    6.4946 H   0  0  0  0  0  0  0  0  0  0  0  0
   10.4066   -3.2702    5.4741 H   0  0  0  0  0  0  0  0  0  0  0  0
   11.4473   -3.9059    7.6332 H   0  0  0  0  0  0  0  0  0  0  0  0
   10.1617   -3.0395    8.5079 H   0  0  0  0  0  0  0  0  0  0  0  0
   11.3076   -2.1374    7.4875 H   0  0  0  0  0  0  0  0  0  0  0  0
 12  1  1  0  0  0  0
  1 17  1  0  0  0  0
  2 17  2  0  0  0  0
  3 23  1  0  0  0  0
  3 62  1  0  0  0  0
  4 25  1  0  0  0  0
  4 30  1  0  0  0  0
  5  6  1  0  0  0  0
  5  7  1  0  0  0  0
  5 13  1  0  0  0  0
  5 14  1  0  0  0  0
  6  8  1  0  0  0  0
  6 10  1  0  0  0  0
  6 35  1  0  0  0  0
  7  9  1  0  0  0  0
  7 11  1  0  0  0  0
  7 36  1  0  0  0  0
  8  9  1  0  0  0  0
  8 37  1  0  0  0  0
  8 38  1  0  0  0  0
  9 39  1  0  0  0  0
  9 40  1  0  0  0  0
 10 12  1  0  0  0  0
 10 41  1  0  0  0  0
 10 42  1  0  0  0  0
 11 12  1  0  0  0  0
 11 43  1  0  0  0  0
 11 44  1  0  0  0  0
 12 45  1  0  0  0  0
 13 15  1  0  0  0  0
 13 46  1  0  0  0  0
 13 47  1  0  0  0  0
 14 48  1  0  0  0  0
 14 49  1  0  0  0  0
 14 50  1  0  0  0  0
 15 16  1  0  0  0  0
 15 51  1  0  0  0  0
 15 52  1  0  0  0  0
 16 18  2  0  0  0  0
 16 19  1  0  0  0  0
 20 17  1  0  0  0  0
 18 21  1  0  0  0  0
 18 53  1  0  0  0  0
 19 22  2  0  0  0  0
 19 54  1  0  0  0  0
 20 23  1  0  0  0  0
 20 24  1  0  0  0  0
 20 55  1  0  0  0  0
 21 25  2  0  0  0  0
 21 56  1  0  0  0  0
 22 25  1  0  0  0  0
 22 57  1  0  0  0  0
 23 58  1  0  0  0  0
 23 59  1  0  0  0  0
 24 26  2  0  0  0  0
 24 27  1  0  0  0  0
 26 28  1  0  0  0  0
 26 60  1  0  0  0  0
 27 29  2  0  0  0  0
 27 61  1  0  0  0  0
 28 31  2  0  0  0  0
 28 63  1  0  0  0  0
 29 31  1  0  0  0  0
 29 64  1  0  0  0  0
 30 32  1  0  0  0  0
 30 65  1  0  0  0  0
 30 66  1  0  0  0  0
 31 67  1  0  0  0  0
 32 33  1  0  0  0  0
 32 68  1  0  0  0  0
 32 69  1  0  0  0  0
 33 34  1  0  0  0  0
 33 70  1  0  0  0  0
 33 71  1  0  0  0  0
 34 72  1  0  0  0  0
 34 73  1  0  0  0  0
 34 74  1  0  0  0  0
M  CHG  1   5   1
M  END
