lig
 OpenBabel04172506263D

 74 77  0  0  1  0  0  0  0  0999 V2000
   -2.0149   -1.2739   -1.0563 O   0  0  0  0  0  0  0  0  0  0  0  0
   -1.8997   -2.7011    0.7475 O   0  0  0  0  0  0  0  0  0  0  0  0
    1.2768   -3.1172   -2.7144 O   0  0  0  0  0  0  0  0  0  0  0  0
    4.0669    3.1065    0.4988 O   0  0  0  0  0  0  0  0  0  0  0  0
   -3.7163    1.9140   -0.1309 N   0  3  1  0  0  0  0  0  0  0  0  0
   -4.4904    1.4221   -1.3411 C   0  0  2  0  0  0  0  0  0  0  0  0
   -4.2944    0.8347    0.9757 C   0  0  1  0  0  0  0  0  0  0  0  0
   -5.9382    1.2984   -0.7867 C   0  0  0  0  0  0  0  0  0  0  0  0
   -5.8015    1.2016    0.7624 C   0  0  0  0  0  0  0  0  0  0  0  0
   -3.8629    0.0682   -1.7899 C   0  0  0  0  0  0  0  0  0  0  0  0
   -3.2926   -0.3534    0.7882 C   0  0  0  0  0  0  0  0  0  0  0  0
   -3.3535   -0.9165   -0.6817 C   0  0  2  0  0  0  0  0  0  0  0  0
   -2.1894    1.9911   -0.3210 C   0  0  0  0  0  0  0  0  0  0  0  0
   -4.0806    3.3840    0.2306 C   0  0  0  0  0  0  0  0  0  0  0  0
   -1.5229    2.4928    0.9555 C   0  0  0  0  0  0  0  0  0  0  0  0
   -0.0280    2.6567    0.8329 C   0  0  0  0  0  0  0  0  0  0  0  0
   -1.4021   -2.1850   -0.2451 C   0  0  0  0  0  0  0  0  0  0  0  0
    0.8008    1.5907    1.1457 C   0  0  0  0  0  0  0  0  0  0  0  0
    0.4900    3.8711    0.4106 C   0  0  0  0  0  0  0  0  0  0  0  0
    0.0067   -2.4580   -0.7644 C   0  0  2  0  0  0  0  0  0  0  0  0
    2.1829    1.7430    1.0331 C   0  0  0  0  0  0  0  0  0  0  0  0
    1.8719    4.0232    0.2979 C   0  0  0  0  0  0  0  0  0  0  0  0
   -0.0474   -2.9684   -2.2114 C   0  0  0  0  0  0  0  0  0  0  0  0
    0.7531   -3.4100    0.1568 C   0  0  0  0  0  0  0  0  0  0  0  0
    2.7184    2.9592    0.6092 C   0  0  0  0  0  0  0  0  0  0  0  0
    1.4976   -2.8884    1.1960 C   0  0  0  0  0  0  0  0  0  0  0  0
    0.6653   -4.7685   -0.0726 C   0  0  0  0  0  0  0  0  0  0  0  0
    2.1828   -3.7617    2.0408 C   0  0  0  0  0  0  0  0  0  0  0  0
    1.3503   -5.6418    0.7722 C   0  0  0  0  0  0  0  0  0  0  0  0
    4.8234    1.9402    0.1775 C   0  0  0  0  0  0  0  0  0  0  0  0
    2.1091   -5.1383    1.8289 C   0  0  0  0  0  0  0  0  0  0  0  0
    6.0711    2.3584   -0.5872 C   0  0  0  0  0  0  0  0  0  0  0  0
    6.9226    1.1539   -0.9784 C   0  0  0  0  0  0  0  0  0  0  0  0
    8.1452    1.5723   -1.7791 C   0  0  0  0  0  0  0  0  0  0  0  0
   -4.4253    2.1683   -2.1409 H   0  0  0  0  0  0  0  0  0  0  0  0
   -4.0284    1.2699    1.9480 H   0  0  0  0  0  0  0  0  0  0  0  0
   -6.5483    2.1672   -1.0564 H   0  0  0  0  0  0  0  0  0  0  0  0
   -6.4410    0.4128   -1.1898 H   0  0  0  0  0  0  0  0  0  0  0  0
   -6.4433    0.4094    1.1608 H   0  0  0  0  0  0  0  0  0  0  0  0
   -6.0868    2.1334    1.2603 H   0  0  0  0  0  0  0  0  0  0  0  0
   -4.5913   -0.4639   -2.4155 H   0  0  0  0  0  0  0  0  0  0  0  0
   -3.0335    0.2987   -2.4733 H   0  0  0  0  0  0  0  0  0  0  0  0
   -2.2811   -0.1161    1.1243 H   0  0  0  0  0  0  0  0  0  0  0  0
   -3.6432   -1.1427    1.4660 H   0  0  0  0  0  0  0  0  0  0  0  0
   -3.9822   -1.8159   -0.7063 H   0  0  0  0  0  0  0  0  0  0  0  0
   -2.0107    2.6812   -1.1566 H   0  0  0  0  0  0  0  0  0  0  0  0
   -1.7698    1.0411   -0.6377 H   0  0  0  0  0  0  0  0  0  0  0  0
   -3.4475    4.0716   -0.3395 H   0  0  0  0  0  0  0  0  0  0  0  0
   -5.1129    3.5943   -0.0575 H   0  0  0  0  0  0  0  0  0  0  0  0
   -3.9757    3.5198    1.3100 H   0  0  0  0  0  0  0  0  0  0  0  0
   -1.7305    1.8363    1.8075 H   0  0  0  0  0  0  0  0  0  0  0  0
   -1.8969    3.4723    1.2699 H   0  0  0  0  0  0  0  0  0  0  0  0
    0.3920    0.6412    1.4792 H   0  0  0  0  0  0  0  0  0  0  0  0
   -0.1605    4.7050    0.1628 H   0  0  0  0  0  0  0  0  0  0  0  0
    0.5497   -1.5023   -0.7595 H   0  0  0  0  0  0  0  0  0  0  0  0
    2.8063    0.8982    1.3107 H   0  0  0  0  0  0  0  0  0  0  0  0
    2.2834    4.9726   -0.0340 H   0  0  0  0  0  0  0  0  0  0  0  0
   -0.5999   -3.9050   -2.3325 H   0  0  0  0  0  0  0  0  0  0  0  0
   -0.5472   -2.2318   -2.8510 H   0  0  0  0  0  0  0  0  0  0  0  0
    1.5593   -1.8186    1.3702 H   0  0  0  0  0  0  0  0  0  0  0  0
    0.0659   -5.2046   -0.8624 H   0  0  0  0  0  0  0  0  0  0  0  0
    1.1993   -3.4214   -3.6347 H   0  0  0  0  0  0  0  0  0  0  0  0
    2.7729   -3.3697    2.8640 H   0  0  0  0  0  0  0  0  0  0  0  0
    1.2879   -6.7142    0.6119 H   0  0  0  0  0  0  0  0  0  0  0  0
    5.1037    1.4292    1.1059 H   0  0  0  0  0  0  0  0  0  0  0  0
    4.2519    1.2530   -0.4600 H   0  0  0  0  0  0  0  0  0  0  0  0
    2.6411   -5.8184    2.4877 H   0  0  0  0  0  0  0  0  0  0  0  0
    5.7752    2.9203   -1.4822 H   0  0  0  0  0  0  0  0  0  0  0  0
    6.6570    3.0562    0.0241 H   0  0  0  0  0  0  0  0  0  0  0  0
    6.3271    0.4536   -1.5757 H   0  0  0  0  0  0  0  0  0  0  0  0
    7.2461    0.6187   -0.0782 H   0  0  0  0  0  0  0  0  0  0  0  0
    8.7414    0.6945   -2.0472 H   0  0  0  0  0  0  0  0  0  0  0  0
    7.8537    2.0802   -2.7040 H   0  0  0  0  0  0  0  0  0  0  0  0
    8.7801    2.2504   -1.1999 H   0  0  0  0  0  0  0  0  0  0  0  0
  1 12  1  0  0  0  0
  1 17  1  0  0  0  0
  2 17  2  0  0  0  0
  3 23  1  0  0  0  0
  3 62  1  0  0  0  0
  4 25  1  0  0  0  0
  4 30  1  0  0  0  0
  5  6  1  0  0  0  0
  5  7  1  0  0  0  0
  5 13  1  6  0  0  0
  5 14  1  0  0  0  0
  6  8  1  0  0  0  0
  6 10  1  0  0  0  0
  6 35  1  6  0  0  0
  7  9  1  0  0  0  0
  7 11  1  0  0  0  0
  7 36  1  1  0  0  0
  8  9  1  0  0  0  0
  8 37  1  0  0  0  0
  8 38  1  0  0  0  0
  9 39  1  0  0  0  0
  9 40  1  0  0  0  0
 10 12  1  0  0  0  0
 10 41  1  0  0  0  0
 10 42  1  0  0  0  0
 11 12  1  0  0  0  0
 11 43  1  0  0  0  0
 11 44  1  0  0  0  0
 12 45  1  6  0  0  0
 13 15  1  0  0  0  0
 13 46  1  0  0  0  0
 13 47  1  0  0  0  0
 14 48  1  0  0  0  0
 14 49  1  0  0  0  0
 14 50  1  0  0  0  0
 15 16  1  0  0  0  0
 15 51  1  0  0  0  0
 15 52  1  0  0  0  0
 16 18  2  0  0  0  0
 16 19  1  0  0  0  0
 17 20  1  0  0  0  0
 18 21  1  0  0  0  0
 18 53  1  0  0  0  0
 19 22  2  0  0  0  0
 19 54  1  0  0  0  0
 20 23  1  0  0  0  0
 20 24  1  0  0  0  0
 20 55  1  6  0  0  0
 21 25  2  0  0  0  0
 21 56  1  0  0  0  0
 22 25  1  0  0  0  0
 22 57  1  0  0  0  0
 23 58  1  0  0  0  0
 23 59  1  0  0  0  0
 24 26  2  0  0  0  0
 24 27  1  0  0  0  0
 26 28  1  0  0  0  0
 26 60  1  0  0  0  0
 27 29  2  0  0  0  0
 27 61  1  0  0  0  0
 28 31  2  0  0  0  0
 28 63  1  0  0  0  0
 29 31  1  0  0  0  0
 29 64  1  0  0  0  0
 30 32  1  0  0  0  0
 30 65  1  0  0  0  0
 30 66  1  0  0  0  0
 31 67  1  0  0  0  0
 32 33  1  0  0  0  0
 32 68  1  0  0  0  0
 32 69  1  0  0  0  0
 33 34  1  0  0  0  0
 33 70  1  0  0  0  0
 33 71  1  0  0  0  0
 34 72  1  0  0  0  0
 34 73  1  0  0  0  0
 34 74  1  0  0  0  0
M  CHG  1   5   1
M  END
