22833297
  Mrv15b2304172506252D          

 74 77  0  0  1  0            999 V2000
    1.4287   -0.3178    0.0000 O   0  0  0  0  0  0  0  0  0  0  0  0
    1.4234   -0.9292    0.0000 O   0  0  0  0  0  0  0  0  0  0  0  0
    4.0269   -0.6040    0.0000 O   0  0  0  0  0  0  0  0  0  0  0  0
   -2.7674    1.9806    0.0000 O   0  0  0  0  0  0  0  0  0  0  0  0
   -0.4873   -0.6296    0.0000 N   0  3  1  0  0  0  0  0  0  0  0  0
   -0.7190    0.2973    0.0000 C   0  0  2  0  0  0  0  0  0  0  0  0
   -0.7190   -1.5564    0.0000 C   0  0  1  0  0  0  0  0  0  0  0  0
   -1.3640   -0.2171    0.0000 C   0  0  0  0  0  0  0  0  0  0  0  0
   -1.3640   -1.0421    0.0000 C   0  0  0  0  0  0  0  0  0  0  0  0
    0.0853    0.1137    0.0000 C   0  0  0  0  0  0  0  0  0  0  0  0
    0.0853   -1.3729    0.0000 C   0  0  0  0  0  0  0  0  0  0  0  0
    0.4433   -0.6296    0.0000 C   0  0  2  0  0  0  0  0  0  0  0  0
    0.4623   -0.1349    0.0000 C   0  0  0  0  0  0  0  0  0  0  0  0
    0.4535   -1.1348    0.0000 C   0  0  0  0  0  0  0  0  0  0  0  0
    0.3139    0.7994    0.0000 C   0  0  0  0  0  0  0  0  0  0  0  0
   -0.4564    1.0947    0.0000 C   0  0  0  0  0  0  0  0  0  0  0  0
    2.2319   -0.7649    0.0000 C   0  0  0  0  0  0  0  0  0  0  0  0
   -1.0973    0.5752    0.0000 C   0  0  0  0  0  0  0  0  0  0  0  0
   -0.5859    1.9094    0.0000 C   0  0  0  0  0  0  0  0  0  0  0  0
    2.8145   -1.4239    0.0000 C   0  0  2  0  0  0  0  0  0  0  0  0
   -1.8677    0.8705    0.0000 C   0  0  0  0  0  0  0  0  0  0  0  0
   -1.3562    2.2047    0.0000 C   0  0  0  0  0  0  0  0  0  0  0  0
    3.2032   -0.6514    0.0000 C   0  0  0  0  0  0  0  0  0  0  0  0
    3.2673   -2.1135    0.0000 C   0  0  0  0  0  0  0  0  0  0  0  0
   -1.9971    1.6853    0.0000 C   0  0  0  0  0  0  0  0  0  0  0  0
    4.0910   -2.0662    0.0000 C   0  0  0  0  0  0  0  0  0  0  0  0
    2.8965   -2.8505    0.0000 C   0  0  0  0  0  0  0  0  0  0  0  0
    4.5438   -2.7558    0.0000 C   0  0  0  0  0  0  0  0  0  0  0  0
    3.3493   -3.5401    0.0000 C   0  0  0  0  0  0  0  0  0  0  0  0
   -2.8969    2.7953    0.0000 C   0  0  0  0  0  0  0  0  0  0  0  0
    4.1730   -3.4927    0.0000 C   0  0  0  0  0  0  0  0  0  0  0  0
   -3.6672    3.0907    0.0000 C   0  0  0  0  0  0  0  0  0  0  0  0
   -3.7966    3.9054    0.0000 C   0  0  0  0  0  0  0  0  0  0  0  0
   -4.5670    4.2007    0.0000 C   0  0  0  0  0  0  0  0  0  0  0  0
   -0.0007    0.7030    0.0000 H   0  0  0  0  0  0  0  0  0  0  0  0
   -0.9026   -2.3607    0.0000 H   0  0  0  0  0  0  0  0  0  0  0  0
   -2.0684    0.2124    0.0000 H   0  0  0  0  0  0  0  0  0  0  0  0
   -2.1686   -0.3993    0.0000 H   0  0  0  0  0  0  0  0  0  0  0  0
   -2.1890   -1.0421    0.0000 H   0  0  0  0  0  0  0  0  0  0  0  0
   -1.8784   -1.6871    0.0000 H   0  0  0  0  0  0  0  0  0  0  0  0
    0.1582    0.9355    0.0000 H   0  0  0  0  0  0  0  0  0  0  0  0
    0.8650    0.3834    0.0000 H   0  0  0  0  0  0  0  0  0  0  0  0
    0.0946   -2.1978    0.0000 H   0  0  0  0  0  0  0  0  0  0  0  0
    0.6697   -1.9552    0.0000 H   0  0  0  0  0  0  0  0  0  0  0  0
    1.1137   -1.1103    0.0000 H   0  0  0  0  0  0  0  0  0  0  0  0
    1.0549   -0.7089    0.0000 H   0  0  0  0  0  0  0  0  0  0  0  0
    1.2853   -0.0769    0.0000 H   0  0  0  0  0  0  0  0  0  0  0  0
    0.9898   -1.7617    0.0000 H   0  0  0  0  0  0  0  0  0  0  0  0
    1.2091   -1.4659    0.0000 H   0  0  0  0  0  0  0  0  0  0  0  0
    1.0199   -0.5349    0.0000 H   0  0  0  0  0  0  0  0  0  0  0  0
    1.0811    1.1028    0.0000 H   0  0  0  0  0  0  0  0  0  0  0  0
    0.4543    1.6123    0.0000 H   0  0  0  0  0  0  0  0  0  0  0  0
   -1.2268    1.3900    0.0000 H   0  0  0  0  0  0  0  0  0  0  0  0
    0.0551    2.4289    0.0000 H   0  0  0  0  0  0  0  0  0  0  0  0
    2.1590   -1.9248    0.0000 H   0  0  0  0  0  0  0  0  0  0  0  0
   -2.6907    0.9276    0.0000 H   0  0  0  0  0  0  0  0  0  0  0  0
   -1.4856    3.0195    0.0000 H   0  0  0  0  0  0  0  0  0  0  0  0
    3.1081    0.1681    0.0000 H   0  0  0  0  0  0  0  0  0  0  0  0
    2.4891   -0.2383    0.0000 H   0  0  0  0  0  0  0  0  0  0  0  0
    3.6382   -1.3765    0.0000 H   0  0  0  0  0  0  0  0  0  0  0  0
    2.0729   -2.8978    0.0000 H   0  0  0  0  0  0  0  0  0  0  0  0
    4.4797   -1.2937    0.0000 H   0  0  0  0  0  0  0  0  0  0  0  0
    5.3674   -2.7084    0.0000 H   0  0  0  0  0  0  0  0  0  0  0  0
    2.9785   -4.2771    0.0000 H   0  0  0  0  0  0  0  0  0  0  0  0
   -2.0910    2.9719    0.0000 H   0  0  0  0  0  0  0  0  0  0  0  0
   -2.5573    3.5472    0.0000 H   0  0  0  0  0  0  0  0  0  0  0  0
    4.6258   -4.1824    0.0000 H   0  0  0  0  0  0  0  0  0  0  0  0
   -4.4731    2.9141    0.0000 H   0  0  0  0  0  0  0  0  0  0  0  0
   -4.0068    2.3388    0.0000 H   0  0  0  0  0  0  0  0  0  0  0  0
   -2.9908    4.0820    0.0000 H   0  0  0  0  0  0  0  0  0  0  0  0
   -3.4570    4.6573    0.0000 H   0  0  0  0  0  0  0  0  0  0  0  0
   -4.2717    4.9711    0.0000 H   0  0  0  0  0  0  0  0  0  0  0  0
   -5.3373    4.4960    0.0000 H   0  0  0  0  0  0  0  0  0  0  0  0
   -4.8623    3.4304    0.0000 H   0  0  0  0  0  0  0  0  0  0  0  0
 12  1  1  1  0  0  0
  1 17  1  0  0  0  0
  2 17  2  0  0  0  0
  3 23  1  0  0  0  0
  3 62  1  0  0  0  0
  4 25  1  0  0  0  0
  4 30  1  0  0  0  0
  5  6  1  0  0  0  0
  5  7  1  0  0  0  0
  5 13  1  6  0  0  0
  5 14  1  1  0  0  0
  6  8  1  1  0  0  0
  6 10  1  0  0  0  0
  6 35  1  1  0  0  0
  7  9  1  1  0  0  0
  7 11  1  0  0  0  0
  7 36  1  1  0  0  0
  8  9  1  0  0  0  0
  8 37  1  0  0  0  0
  8 38  1  0  0  0  0
  9 39  1  0  0  0  0
  9 40  1  0  0  0  0
 10 12  1  0  0  0  0
 10 41  1  0  0  0  0
 10 42  1  0  0  0  0
 11 12  1  0  0  0  0
 11 43  1  0  0  0  0
 11 44  1  0  0  0  0
 12 45  1  6  0  0  0
 13 15  1  0  0  0  0
 13 46  1  0  0  0  0
 13 47  1  0  0  0  0
 14 48  1  0  0  0  0
 14 49  1  0  0  0  0
 14 50  1  0  0  0  0
 15 16  1  0  0  0  0
 15 51  1  0  0  0  0
 15 52  1  0  0  0  0
 16 18  2  3  0  0  0
 16 19  1  0  0  0  0
 20 17  1  6  0  0  0
 18 21  1  0  0  0  0
 18 53  1  0  0  0  0
 19 22  2  0  0  0  0
 19 54  1  0  0  0  0
 20 23  1  0  0  0  0
 20 24  1  0  0  0  0
 20 55  1  1  0  0  0
 21 25  2  0  0  0  0
 21 56  1  0  0  0  0
 22 25  1  0  0  0  0
 22 57  1  0  0  0  0
 23 58  1  0  0  0  0
 23 59  1  0  0  0  0
 24 26  2  0  0  0  0
 24 27  1  0  0  0  0
 26 28  1  0  0  0  0
 26 60  1  0  0  0  0
 27 29  2  0  0  0  0
 27 61  1  0  0  0  0
 28 31  2  0  0  0  0
 28 63  1  0  0  0  0
 29 31  1  0  0  0  0
 29 64  1  0  0  0  0
 30 32  1  0  0  0  0
 30 65  1  0  0  0  0
 30 66  1  0  0  0  0
 31 67  1  0  0  0  0
 32 33  1  0  0  0  0
 32 68  1  0  0  0  0
 32 69  1  0  0  0  0
 33 34  1  0  0  0  0
 33 70  1  0  0  0  0
 33 71  1  0  0  0  0
 34 72  1  0  0  0  0
 34 73  1  0  0  0  0
 34 74  1  0  0  0  0
M  CHG  1   5   1
M  END
