56209827
  Mrv15b2304152517453D          

 54 57  0  0  1  0            999 V2000
   -0.3480    9.0569    6.2192 S   0  0  0  0  0  0  0  0  0  0  0  0
    1.6018    0.2049   -0.3796 O   0  0  0  0  0  0  0  0  0  0  0  0
    1.4349    6.4044    6.2023 N   0  0  1  0  0  0  0  0  0  0  0  0
    3.7936    2.2003    0.1801 N   0  0  2  0  0  0  0  0  0  0  0  0
    0.5747    2.0972   -0.7827 N   0  0  0  0  0  0  0  0  0  0  0  0
   -0.3111    1.2666   -0.3409 N   0  0  0  0  0  0  0  0  0  0  0  0
    2.2751    5.7814    5.1560 C   0  0  1  0  0  0  0  0  0  0  0  0
    2.1000    7.7225    6.4710 C   0  0  2  0  0  0  0  0  0  0  0  0
   -0.0569    6.3454    5.9303 C   0  0  2  0  0  0  0  0  0  0  0  0
    2.1250    4.2444    5.1681 C   0  0  2  0  0  0  0  0  0  0  0  0
    1.2788    8.8714    7.0791 C   0  0  2  0  0  0  0  0  0  0  0  0
   -0.7464    7.5438    5.2504 C   0  0  1  0  0  0  0  0  0  0  0  0
    2.5111    3.7313    3.8494 C   0  0  0  0  0  0  0  0  0  0  0  0
    3.7402    3.0045    3.7850 C   0  0  0  0  0  0  0  0  0  0  0  0
    1.7035    4.0098    2.6914 C   0  0  0  0  0  0  0  0  0  0  0  0
    3.3794    2.7723    1.3630 C   0  0  0  0  0  0  0  0  0  0  0  0
    3.0603    2.1520   -1.0531 C   0  0  2  0  0  0  0  0  0  0  0  0
    4.1838    2.5174    2.5241 C   0  0  0  0  0  0  0  0  0  0  0  0
    2.1541    3.5312    1.4341 C   0  0  0  0  0  0  0  0  0  0  0  0
    1.7627    1.4790   -0.7843 C   0  0  0  0  0  0  0  0  0  0  0  0
    3.8599    1.4664   -2.1617 C   0  0  0  0  0  0  0  0  0  0  0  0
    0.2822    0.0771   -0.0865 C   0  0  0  0  0  0  0  0  0  0  0  0
   -0.3501   -1.1078    0.3489 C   0  0  0  0  0  0  0  0  0  0  0  0
   -1.7776   -1.1445    0.5805 C   0  0  0  0  0  0  0  0  0  0  0  0
    0.4382   -2.3156    0.4780 C   0  0  0  0  0  0  0  0  0  0  0  0
   -2.4241   -2.3874    0.8944 C   0  0  0  0  0  0  0  0  0  0  0  0
   -0.1983   -3.5611    0.7905 C   0  0  0  0  0  0  0  0  0  0  0  0
   -1.6187   -3.5679    0.9815 C   0  0  0  0  0  0  0  0  0  0  0  0
    1.9842    6.1671    4.1789 H   0  0  0  0  0  0  0  0  0  0  0  0
    3.3245    6.0366    5.3031 H   0  0  0  0  0  0  0  0  0  0  0  0
    2.5962    8.0705    5.5650 H   0  0  0  0  0  0  0  0  0  0  0  0
    2.9656    7.5319    7.1054 H   0  0  0  0  0  0  0  0  0  0  0  0
   -0.5846    6.0972    6.8512 H   0  0  0  0  0  0  0  0  0  0  0  0
   -0.2345    5.4895    5.2791 H   0  0  0  0  0  0  0  0  0  0  0  0
    1.0864    3.9823    5.3701 H   0  0  0  0  0  0  0  0  0  0  0  0
    2.7901    3.8819    5.9519 H   0  0  0  0  0  0  0  0  0  0  0  0
    1.1098    8.6763    8.1381 H   0  0  0  0  0  0  0  0  0  0  0  0
    1.8401    9.8051    7.0462 H   0  0  0  0  0  0  0  0  0  0  0  0
   -1.8252    7.3882    5.2469 H   0  0  0  0  0  0  0  0  0  0  0  0
   -0.3244    7.6579    4.2519 H   0  0  0  0  0  0  0  0  0  0  0  0
    4.2896    2.8381    4.6281 H   0  0  0  0  0  0  0  0  0  0  0  0
    0.8332    4.5356    2.7720 H   0  0  0  0  0  0  0  0  0  0  0  0
    2.8742    3.1678   -1.3958 H   0  0  0  0  0  0  0  0  0  0  0  0
    5.0574    1.9966    2.4466 H   0  0  0  0  0  0  0  0  0  0  0  0
    1.6168    3.7218    0.5883 H   0  0  0  0  0  0  0  0  0  0  0  0
    4.1808    1.3293    0.3603 H   0  0  0  0  0  0  0  0  0  0  0  0
    3.2702    1.4502   -3.0783 H   0  0  0  0  0  0  0  0  0  0  0  0
    4.0941    0.4448   -1.8622 H   0  0  0  0  0  0  0  0  0  0  0  0
    4.7855    2.0154   -2.3349 H   0  0  0  0  0  0  0  0  0  0  0  0
   -2.3255   -0.2863    0.5206 H   0  0  0  0  0  0  0  0  0  0  0  0
    1.4491   -2.2798    0.3462 H   0  0  0  0  0  0  0  0  0  0  0  0
   -3.4311   -2.4283    1.0514 H   0  0  0  0  0  0  0  0  0  0  0  0
    0.3453   -4.4201    0.8748 H   0  0  0  0  0  0  0  0  0  0  0  0
   -2.0771   -4.4551    1.1892 H   0  0  0  0  0  0  0  0  0  0  0  0
  1 11  1  0  0  0  0
  1 12  1  0  0  0  0
  2 20  1  0  0  0  0
  2 22  1  0  0  0  0
  3  7  1  0  0  0  0
  3  8  1  0  0  0  0
  3  9  1  0  0  0  0
  4 16  1  0  0  0  0
  4 17  1  0  0  0  0
  4 46  1  0  0  0  0
  5  6  1  0  0  0  0
  5 20  2  0  0  0  0
  6 22  2  0  0  0  0
  7 10  1  0  0  0  0
  7 29  1  0  0  0  0
  7 30  1  0  0  0  0
  8 11  1  0  0  0  0
  8 31  1  0  0  0  0
  8 32  1  0  0  0  0
  9 12  1  0  0  0  0
  9 33  1  0  0  0  0
  9 34  1  0  0  0  0
 10 13  1  0  0  0  0
 10 35  1  0  0  0  0
 10 36  1  0  0  0  0
 11 37  1  0  0  0  0
 11 38  1  0  0  0  0
 12 39  1  0  0  0  0
 12 40  1  0  0  0  0
 13 14  2  0  0  0  0
 13 15  1  0  0  0  0
 14 18  1  0  0  0  0
 14 41  1  0  0  0  0
 15 19  2  0  0  0  0
 15 42  1  0  0  0  0
 16 18  2  0  0  0  0
 16 19  1  0  0  0  0
 17 20  1  0  0  0  0
 17 21  1  0  0  0  0
 17 43  1  0  0  0  0
 18 44  1  0  0  0  0
 19 45  1  0  0  0  0
 21 47  1  0  0  0  0
 21 48  1  0  0  0  0
 21 49  1  0  0  0  0
 22 23  1  0  0  0  0
 23 24  2  0  0  0  0
 23 25  1  0  0  0  0
 24 26  1  0  0  0  0
 24 50  1  0  0  0  0
 25 27  2  0  0  0  0
 25 51  1  0  0  0  0
 26 28  2  0  0  0  0
 26 52  1  0  0  0  0
 27 28  1  0  0  0  0
 27 53  1  0  0  0  0
 28 54  1  0  0  0  0
M  END
