@<TRIPOS>MOLECULE
lig
 54 57 0 0 0
SMALL
GASTEIGER

@<TRIPOS>ATOM
      1 S          -0.3480    9.0569    6.2192 S.3     1  UNL11      -0.1582
      2 O           1.6018    0.2049   -0.3796 O.2     1  UNL11      -0.4183
      3 N           1.4349    6.4044    6.2023 N.3     1  UNL11      -0.3005
      4 N           3.7936    2.2003    0.1801 N.pl3   1  UNL11      -0.3330
      5 N           0.5747    2.0972   -0.7827 N.ar    1  UNL11      -0.1101
      6 N          -0.3111    1.2666   -0.3409 N.ar    1  UNL11      -0.1072
      7 C           2.2751    5.7814    5.1560 C.3     1  UNL11       0.0029
      8 C           2.1000    7.7225    6.4710 C.3     1  UNL11       0.0079
      9 C          -0.0569    6.3454    5.9303 C.3     1  UNL11       0.0079
     10 C           2.1250    4.2444    5.1681 C.3     1  UNL11      -0.0149
     11 C           1.2788    8.8714    7.0791 C.3     1  UNL11       0.0065
     12 C          -0.7464    7.5438    5.2504 C.3     1  UNL11       0.0065
     13 C           2.5111    3.7313    3.8494 C.ar    1  UNL11      -0.0460
     14 C           3.7402    3.0045    3.7850 C.ar    1  UNL11      -0.0568
     15 C           1.7035    4.0098    2.6914 C.ar    1  UNL11      -0.0568
     16 C           3.3794    2.7723    1.3630 C.ar    1  UNL11       0.0277
     17 C           3.0603    2.1520   -1.0531 C.3     1  UNL11       0.0960
     18 C           4.1838    2.5174    2.5241 C.ar    1  UNL11      -0.0406
     19 C           2.1541    3.5312    1.4341 C.ar    1  UNL11      -0.0406
     20 C           1.7627    1.4790   -0.7843 C.ar    1  UNL11       0.2373
     21 C           3.8599    1.4664   -2.1617 C.3     1  UNL11      -0.0380
     22 C           0.2822    0.0771   -0.0865 C.ar    1  UNL11       0.2484
     23 C          -0.3501   -1.1078    0.3489 C.ar    1  UNL11       0.0385
     24 C          -1.7776   -1.1445    0.5805 C.ar    1  UNL11      -0.0494
     25 C           0.4382   -2.3156    0.4780 C.ar    1  UNL11      -0.0494
     26 C          -2.4241   -2.3874    0.8944 C.ar    1  UNL11      -0.0610
     27 C          -0.1983   -3.5611    0.7905 C.ar    1  UNL11      -0.0610
     28 C          -1.6187   -3.5679    0.9815 C.ar    1  UNL11      -0.0617
     29 H           1.9842    6.1671    4.1789 H       1  UNL11       0.0430
     30 H           3.3245    6.0366    5.3031 H       1  UNL11       0.0430
     31 H           2.5962    8.0705    5.5650 H       1  UNL11       0.0434
     32 H           2.9656    7.5319    7.1054 H       1  UNL11       0.0434
     33 H          -0.5846    6.0972    6.8512 H       1  UNL11       0.0434
     34 H          -0.2345    5.4895    5.2791 H       1  UNL11       0.0434
     35 H           1.0864    3.9823    5.3701 H       1  UNL11       0.0326
     36 H           2.7901    3.8819    5.9519 H       1  UNL11       0.0326
     37 H           1.1098    8.6763    8.1381 H       1  UNL11       0.0389
     38 H           1.8401    9.8051    7.0462 H       1  UNL11       0.0389
     39 H          -1.8252    7.3882    5.2469 H       1  UNL11       0.0389
     40 H          -0.3244    7.6579    4.2519 H       1  UNL11       0.0389
     41 H           4.2896    2.8381    4.6281 H       1  UNL11       0.0621
     42 H           0.8332    4.5356    2.7720 H       1  UNL11       0.0621
     43 H           2.8742    3.1678   -1.3958 H       1  UNL11       0.0593
     44 H           5.0574    1.9966    2.4466 H       1  UNL11       0.0636
     45 H           1.6168    3.7218    0.5883 H       1  UNL11       0.0636
     46 H           4.1808    1.3293    0.3603 H       1  UNL11       0.1468
     47 H           3.2702    1.4502   -3.0783 H       1  UNL11       0.0252
     48 H           4.0941    0.4448   -1.8622 H       1  UNL11       0.0252
     49 H           4.7855    2.0154   -2.3349 H       1  UNL11       0.0252
     50 H          -2.3255   -0.2863    0.5206 H       1  UNL11       0.0625
     51 H           1.4491   -2.2798    0.3462 H       1  UNL11       0.0625
     52 H          -3.4311   -2.4283    1.0514 H       1  UNL11       0.0618
     53 H           0.3453   -4.4201    0.8748 H       1  UNL11       0.0618
     54 H          -2.0771   -4.4551    1.1892 H       1  UNL11       0.0618
@<TRIPOS>BOND
     1     1    11    1
     2     1    12    1
     3     2    20   ar
     4     2    22   ar
     5     3     7    1
     6     3     8    1
     7     3     9    1
     8     4    16    1
     9     4    17    1
    10     4    46    1
    11     5     6   ar
    12     5    20   ar
    13     6    22   ar
    14     7    10    1
    15     7    29    1
    16     7    30    1
    17     8    11    1
    18     8    31    1
    19     8    32    1
    20     9    12    1
    21     9    33    1
    22     9    34    1
    23    10    13    1
    24    10    35    1
    25    10    36    1
    26    11    37    1
    27    11    38    1
    28    12    39    1
    29    12    40    1
    30    13    14   ar
    31    13    15   ar
    32    14    18   ar
    33    14    41    1
    34    15    19   ar
    35    15    42    1
    36    16    18   ar
    37    16    19   ar
    38    17    20    1
    39    17    21    1
    40    17    43    1
    41    18    44    1
    42    19    45    1
    43    21    47    1
    44    21    48    1
    45    21    49    1
    46    22    23    1
    47    23    24   ar
    48    23    25   ar
    49    24    26   ar
    50    24    50    1
    51    25    27   ar
    52    25    51    1
    53    26    28   ar
    54    26    52    1
    55    27    28   ar
    56    27    53    1
    57    28    54    1
