56209827
  MJ221101                      

 54 57  0  0  1  0  0  0  0  0999 V2000
    5.8549   -4.5461    0.0000 S   0  0  0  0  0  0  0  0  0  0  0  0
    1.7455    2.2454    0.0000 O   0  0  0  0  0  0  0  0  0  0  0  0
    4.8850   -3.2113    0.0000 N   0  0  0  0  0  0  0  0  0  0  0  0
    1.6399    0.0397    0.0000 N   0  0  0  0  0  0  0  0  0  0  0  0
    0.6656    1.4608    0.0000 N   0  0  0  0  0  0  0  0  0  0  0  0
    0.4106    2.2454    0.0000 N   0  0  0  0  0  0  0  0  0  0  0  0
    4.4001   -2.5438    0.0000 C   0  0  0  0  0  0  0  0  0  0  0  0
    4.5495   -3.9649    0.0000 C   0  0  0  0  0  0  0  0  0  0  0  0
    5.7055   -3.1250    0.0000 C   0  0  0  0  0  0  0  0  0  0  0  0
    3.5796   -2.6301    0.0000 C   0  0  0  0  0  0  0  0  0  0  0  0
    5.0344   -4.6323    0.0000 C   0  0  0  0  0  0  0  0  0  0  0  0
    6.1904   -3.7925    0.0000 C   0  0  0  0  0  0  0  0  0  0  0  0
    3.0947   -1.9626    0.0000 C   0  0  0  0  0  0  0  0  0  0  0  0
    2.2741   -2.0489    0.0000 C   0  0  0  0  0  0  0  0  0  0  0  0
    3.4303   -1.2089    0.0000 C   0  0  0  0  0  0  0  0  0  0  0  0
    2.1248   -0.6277    0.0000 C   0  0  0  0  0  0  0  0  0  0  0  0
    1.9755    0.7934    0.0000 C   0  0  0  0  0  0  0  0  0  0  0  0
    1.7893   -1.3814    0.0000 C   0  0  0  0  0  0  0  0  0  0  0  0
    2.9453   -0.5415    0.0000 C   0  0  0  0  0  0  0  0  0  0  0  0
    1.4906    1.4608    0.0000 C   0  0  0  0  0  0  0  0  0  0  0  0
    2.7960    0.8796    0.0000 C   0  0  0  0  0  0  0  0  0  0  0  0
    1.0781    2.7304    0.0000 C   0  0  0  0  0  0  0  0  0  0  0  0
    1.0781    3.5554    0.0000 C   0  0  0  0  0  0  0  0  0  0  0  0
    0.3635    3.9679    0.0000 C   0  0  0  0  0  0  0  0  0  0  0  0
    1.7926    3.9679    0.0000 C   0  0  0  0  0  0  0  0  0  0  0  0
    0.3635    4.7929    0.0000 C   0  0  0  0  0  0  0  0  0  0  0  0
    1.7926    4.7929    0.0000 C   0  0  0  0  0  0  0  0  0  0  0  0
    1.0781    5.2054    0.0000 C   0  0  0  0  0  0  0  0  0  0  0  0
    5.0382   -2.0209    0.0000 H   0  0  0  0  0  0  0  0  0  0  0  0
    4.3617   -1.7197    0.0000 H   0  0  0  0  0  0  0  0  0  0  0  0
    3.7776   -3.6738    0.0000 H   0  0  0  0  0  0  0  0  0  0  0  0
    3.8550   -4.4102    0.0000 H   0  0  0  0  0  0  0  0  0  0  0  0
    6.3436   -2.6021    0.0000 H   0  0  0  0  0  0  0  0  0  0  0  0
    5.6670   -2.3009    0.0000 H   0  0  0  0  0  0  0  0  0  0  0  0
    2.9415   -3.1530    0.0000 H   0  0  0  0  0  0  0  0  0  0  0  0
    3.6180   -3.4542    0.0000 H   0  0  0  0  0  0  0  0  0  0  0  0
    4.3963   -5.1553    0.0000 H   0  0  0  0  0  0  0  0  0  0  0  0
    5.0728   -5.4565    0.0000 H   0  0  0  0  0  0  0  0  0  0  0  0
    6.9624   -4.0836    0.0000 H   0  0  0  0  0  0  0  0  0  0  0  0
    6.8850   -3.3472    0.0000 H   0  0  0  0  0  0  0  0  0  0  0  0
    1.9387   -2.8025    0.0000 H   0  0  0  0  0  0  0  0  0  0  0  0
    4.2508   -1.1227    0.0000 H   0  0  0  0  0  0  0  0  0  0  0  0
    1.1550    0.7070    0.0000 H   0  0  0  0  0  0  0  0  0  0  0  0
    0.9688   -1.4676    0.0000 H   0  0  0  0  0  0  0  0  0  0  0  0
    3.2809    0.2122    0.0000 H   0  0  0  0  0  0  0  0  0  0  0  0
    0.8195   -0.0465    0.0000 H   0  0  0  0  0  0  0  0  0  0  0  0
    3.6165    0.9658    0.0000 H   0  0  0  0  0  0  0  0  0  0  0  0
    3.1315    1.6333    0.0000 H   0  0  0  0  0  0  0  0  0  0  0  0
    2.3111    1.5471    0.0000 H   0  0  0  0  0  0  0  0  0  0  0  0
   -0.3509    3.5554    0.0000 H   0  0  0  0  0  0  0  0  0  0  0  0
    2.5070    3.5554    0.0000 H   0  0  0  0  0  0  0  0  0  0  0  0
   -0.3509    5.2054    0.0000 H   0  0  0  0  0  0  0  0  0  0  0  0
    2.5070    5.2054    0.0000 H   0  0  0  0  0  0  0  0  0  0  0  0
    1.0781    6.0304    0.0000 H   0  0  0  0  0  0  0  0  0  0  0  0
  1 11  1  0  0  0  0
  1 12  1  0  0  0  0
  2 20  1  0  0  0  0
  2 22  1  0  0  0  0
  3  7  1  0  0  0  0
  3  8  1  0  0  0  0
  3  9  1  0  0  0  0
  4 16  1  0  0  0  0
  4 17  1  0  0  0  0
  4 46  1  0  0  0  0
  5  6  1  0  0  0  0
  5 20  2  0  0  0  0
  6 22  2  0  0  0  0
  7 10  1  0  0  0  0
  7 29  1  0  0  0  0
  7 30  1  0  0  0  0
  8 11  1  0  0  0  0
  8 31  1  0  0  0  0
  8 32  1  0  0  0  0
  9 12  1  0  0  0  0
  9 33  1  0  0  0  0
  9 34  1  0  0  0  0
 10 13  1  0  0  0  0
 10 35  1  0  0  0  0
 10 36  1  0  0  0  0
 11 37  1  0  0  0  0
 11 38  1  0  0  0  0
 12 39  1  0  0  0  0
 12 40  1  0  0  0  0
 13 14  2  0  0  0  0
 13 15  1  0  0  0  0
 14 18  1  0  0  0  0
 14 41  1  0  0  0  0
 15 19  2  0  0  0  0
 15 42  1  0  0  0  0
 16 18  2  0  0  0  0
 16 19  1  0  0  0  0
 17 20  1  0  0  0  0
 17 21  1  0  0  0  0
 17 43  1  0  0  0  0
 18 44  1  0  0  0  0
 19 45  1  0  0  0  0
 21 47  1  0  0  0  0
 21 48  1  0  0  0  0
 21 49  1  0  0  0  0
 22 23  1  0  0  0  0
 23 24  2  0  0  0  0
 23 25  1  0  0  0  0
 24 26  1  0  0  0  0
 24 50  1  0  0  0  0
 25 27  2  0  0  0  0
 25 51  1  0  0  0  0
 26 28  2  0  0  0  0
 26 52  1  0  0  0  0
 27 28  1  0  0  0  0
 27 53  1  0  0  0  0
 28 54  1  0  0  0  0
M  END
