lig
 OpenBabel04152517452D

 54 57  0  0  1  0  0  0  0  0999 V2000
    2.4239   -5.3916    0.0000 S   0  0  0  0  0  0  0  0  0  0  0  0
    3.1854    2.5184    0.0000 O   0  0  0  0  0  0  0  0  0  0  0  0
    2.4239   -3.7416    0.0000 N   0  0  0  0  0  0  0  0  0  0  0  0
    3.1384    0.7960    0.0000 N   0  0  0  0  0  0  0  0  0  0  0  0
    4.5203    2.5184    0.0000 N   0  0  0  0  0  0  0  0  0  0  0  0
    4.2654    3.3030    0.0000 N   0  0  0  0  0  0  0  0  0  0  0  0
    2.4239   -2.9166    0.0000 C   0  0  0  0  0  0  0  0  0  0  0  0
    3.1384   -4.1541    0.0000 C   0  0  0  0  0  0  0  0  0  0  0  0
    1.7094   -4.1541    0.0000 C   0  0  0  0  0  0  0  0  0  0  0  0
    3.1384   -2.5041    0.0000 C   0  0  0  0  0  0  0  0  0  0  0  0
    3.1384   -4.9791    0.0000 C   0  0  0  0  0  0  0  0  0  0  0  0
    1.7094   -4.9791    0.0000 C   0  0  0  0  0  0  0  0  0  0  0  0
    3.1384   -1.6790    0.0000 C   0  0  0  0  0  0  0  0  0  0  0  0
    3.8529   -1.2665    0.0000 C   0  0  0  0  0  0  0  0  0  0  0  0
    2.4239   -1.2665    0.0000 C   0  0  0  0  0  0  0  0  0  0  0  0
    3.1384   -0.0290    0.0000 C   0  0  0  0  0  0  0  0  0  0  0  0
    3.8529    1.2085    0.0000 C   0  0  3  0  0  0  0  0  0  0  0  0
    3.8529   -0.4415    0.0000 C   0  0  0  0  0  0  0  0  0  0  0  0
    2.4239   -0.4415    0.0000 C   0  0  0  0  0  0  0  0  0  0  0  0
    3.8529    2.0335    0.0000 C   0  0  0  0  0  0  0  0  0  0  0  0
    4.5673    0.7960    0.0000 C   0  0  0  0  0  0  0  0  0  0  0  0
    3.4403    3.3030    0.0000 C   0  0  0  0  0  0  0  0  0  0  0  0
    2.9554    3.9704    0.0000 C   0  0  0  0  0  0  0  0  0  0  0  0
    2.1349    3.8842    0.0000 C   0  0  0  0  0  0  0  0  0  0  0  0
    3.2909    4.7241    0.0000 C   0  0  0  0  0  0  0  0  0  0  0  0
    1.6500    4.5516    0.0000 C   0  0  0  0  0  0  0  0  0  0  0  0
    2.8061    5.3916    0.0000 C   0  0  0  0  0  0  0  0  0  0  0  0
    1.9855    5.3054    0.0000 C   0  0  0  0  0  0  0  0  0  0  0  0
    2.2490   -2.4359    0.0000 H   0  0  0  0  0  0  0  0  0  0  0  0
    1.9202   -3.0054    0.0000 H   0  0  0  0  0  0  0  0  0  0  0  0
    3.6421   -4.2429    0.0000 H   0  0  0  0  0  0  0  0  0  0  0  0
    3.3133   -3.6734    0.0000 H   0  0  0  0  0  0  0  0  0  0  0  0
    1.5345   -3.6734    0.0000 H   0  0  0  0  0  0  0  0  0  0  0  0
    1.2057   -4.2429    0.0000 H   0  0  0  0  0  0  0  0  0  0  0  0
    3.3133   -2.9847    0.0000 H   0  0  0  0  0  0  0  0  0  0  0  0
    3.6421   -2.4153    0.0000 H   0  0  0  0  0  0  0  0  0  0  0  0
    3.3133   -5.4597    0.0000 H   0  0  0  0  0  0  0  0  0  0  0  0
    3.6421   -4.8903    0.0000 H   0  0  0  0  0  0  0  0  0  0  0  0
    1.2057   -4.8903    0.0000 H   0  0  0  0  0  0  0  0  0  0  0  0
    1.5345   -5.4597    0.0000 H   0  0  0  0  0  0  0  0  0  0  0  0
    4.2958   -1.5223    0.0000 H   0  0  0  0  0  0  0  0  0  0  0  0
    1.9809   -1.5223    0.0000 H   0  0  0  0  0  0  0  0  0  0  0  0
    3.8529    0.6970    0.0000 H   0  0  0  0  0  0  0  0  0  0  0  0
    4.2958   -0.1858    0.0000 H   0  0  0  0  0  0  0  0  0  0  0  0
    1.9809   -0.1858    0.0000 H   0  0  0  0  0  0  0  0  0  0  0  0
    2.6954    1.0517    0.0000 H   0  0  0  0  0  0  0  0  0  0  0  0
    4.3116    0.3530    0.0000 H   0  0  0  0  0  0  0  0  0  0  0  0
    5.0103    0.5402    0.0000 H   0  0  0  0  0  0  0  0  0  0  0  0
    4.8231    1.2389    0.0000 H   0  0  0  0  0  0  0  0  0  0  0  0
    1.9269    3.4169    0.0000 H   0  0  0  0  0  0  0  0  0  0  0  0
    3.7996    4.7776    0.0000 H   0  0  0  0  0  0  0  0  0  0  0  0
    1.1413    4.4982    0.0000 H   0  0  0  0  0  0  0  0  0  0  0  0
    3.0141    5.8588    0.0000 H   0  0  0  0  0  0  0  0  0  0  0  0
    1.6849    5.7192    0.0000 H   0  0  0  0  0  0  0  0  0  0  0  0
  1 11  1  0  0  0  0
  1 12  1  0  0  0  0
  2 20  1  0  0  0  0
  2 22  1  0  0  0  0
  3  7  1  0  0  0  0
  3  8  1  0  0  0  0
  3  9  1  0  0  0  0
  4 16  1  0  0  0  0
  4 17  1  0  0  0  0
  4 46  1  0  0  0  0
  5  6  1  0  0  0  0
  5 20  2  0  0  0  0
  6 22  2  0  0  0  0
  7 10  1  0  0  0  0
  7 29  1  0  0  0  0
  7 30  1  0  0  0  0
  8 11  1  0  0  0  0
  8 31  1  0  0  0  0
  8 32  1  0  0  0  0
  9 12  1  0  0  0  0
  9 33  1  0  0  0  0
  9 34  1  0  0  0  0
 10 13  1  0  0  0  0
 10 35  1  0  0  0  0
 10 36  1  0  0  0  0
 11 37  1  0  0  0  0
 11 38  1  0  0  0  0
 12 39  1  0  0  0  0
 12 40  1  0  0  0  0
 13 14  2  0  0  0  0
 13 15  1  0  0  0  0
 14 18  1  0  0  0  0
 14 41  1  0  0  0  0
 15 19  2  0  0  0  0
 15 42  1  0  0  0  0
 16 18  2  0  0  0  0
 16 19  1  0  0  0  0
 17 20  1  0  0  0  0
 17 21  1  0  0  0  0
 17 43  1  0  0  0  0
 18 44  1  0  0  0  0
 19 45  1  0  0  0  0
 21 47  1  0  0  0  0
 21 48  1  0  0  0  0
 21 49  1  0  0  0  0
 22 23  1  0  0  0  0
 23 24  2  0  0  0  0
 23 25  1  0  0  0  0
 24 26  1  0  0  0  0
 24 50  1  0  0  0  0
 25 27  2  0  0  0  0
 25 51  1  0  0  0  0
 26 28  2  0  0  0  0
 26 52  1  0  0  0  0
 27 28  1  0  0  0  0
 27 53  1  0  0  0  0
 28 54  1  0  0  0  0
M  END
