@<TRIPOS>MOLECULE
lig
 54 57 0 0 0
SMALL
GASTEIGER

@<TRIPOS>ATOM
      1 S           1.0130    0.8151    1.1961 S.3     1  UNL11      -0.0857
      2 F           5.9892   -0.5825   -0.3273 F       1  UNL11      -0.1659
      3 F           6.0752    1.6442   -0.5431 F       1  UNL11      -0.1659
      4 F           6.2103    0.3378   -2.3562 F       1  UNL11      -0.1659
      5 N           0.6688   -4.5568   -1.8893 N.3     1  UNL11      -0.2999
      6 N           2.5789   -6.4375   -3.2256 N.3     1  UNL11      -0.3029
      7 N          -0.0595    0.0303   -1.5921 N.pl3   1  UNL11      -0.2968
      8 N           1.6435    0.3232   -3.9305 N.pl3   1  UNL11      -0.3565
      9 C           0.1626   -5.8412   -2.4196 C.3     1  UNL11       0.0117
     10 C           2.1464   -4.2786   -1.9178 C.3     1  UNL11       0.0117
     11 C          -0.1457   -3.5433   -2.5702 C.3     1  UNL11       0.0004
     12 C           1.2297   -6.9360   -2.7815 C.3     1  UNL11       0.0114
     13 C           2.9389   -4.9925   -3.0515 C.3     1  UNL11       0.0114
     14 C          -0.2291   -2.3188   -1.6693 C.3     1  UNL11      -0.0240
     15 C          -0.3830   -1.0412   -2.5160 C.3     1  UNL11       0.0185
     16 C           2.8125   -6.8342   -4.6132 C.3     1  UNL11      -0.0127
     17 C           1.3173    0.3977   -1.5421 C.ar    1  UNL11       0.0688
     18 C          -1.0551    0.3319   -0.6115 C.ar    1  UNL11       0.0479
     19 C           1.9481    0.6376   -0.2711 C.ar    1  UNL11       0.0364
     20 C          -0.6645    0.5921    0.7486 C.ar    1  UNL11       0.0341
     21 C           2.1793    0.3791   -2.7036 C.ar    1  UNL11       0.0478
     22 C          -2.4711    0.2241   -0.8794 C.ar    1  UNL11      -0.0393
     23 C           3.3691    0.6665   -0.0980 C.ar    1  UNL11      -0.0344
     24 C           3.5978    0.4201   -2.5493 C.ar    1  UNL11      -0.0275
     25 C           4.1841    0.5226   -1.2580 C.ar    1  UNL11       0.0577
     26 C          -1.5968    0.6301    1.8305 C.ar    1  UNL11      -0.0462
     27 C          -3.4148    0.2662    0.1865 C.ar    1  UNL11      -0.0599
     28 C          -2.9770    0.4432    1.5307 C.ar    1  UNL11      -0.0606
     29 C           5.6368    0.4799   -1.1190 C.3     1  UNL11       0.4175
     30 H          -0.5657   -6.2594   -1.7247 H       1  UNL11       0.0439
     31 H          -0.3467   -5.5833   -3.3481 H       1  UNL11       0.0439
     32 H           2.3124   -3.2031   -1.9801 H       1  UNL11       0.0439
     33 H           2.5460   -4.7146   -1.0022 H       1  UNL11       0.0439
     34 H          -1.1475   -3.9373   -2.7414 H       1  UNL11       0.0427
     35 H           0.2798   -3.2665   -3.5347 H       1  UNL11       0.0427
     36 H           0.8217   -7.6044   -3.5397 H       1  UNL11       0.0439
     37 H           1.4087   -7.4428   -1.8333 H       1  UNL11       0.0439
     38 H           2.7838   -4.4635   -3.9918 H       1  UNL11       0.0439
     39 H           4.0145   -4.8941   -2.9052 H       1  UNL11       0.0439
     40 H          -1.0845   -2.4170   -1.0009 H       1  UNL11       0.0293
     41 H           0.6790   -2.2101   -1.0762 H       1  UNL11       0.0293
     42 H          -1.4193   -0.9420   -2.8389 H       1  UNL11       0.0468
     43 H           0.3640   -1.0811   -3.3088 H       1  UNL11       0.0468
     44 H           3.7895   -6.4732   -4.9347 H       1  UNL11       0.0391
     45 H           2.0389   -6.4039   -5.2492 H       1  UNL11       0.0391
     46 H           2.7833   -7.9210   -4.6902 H       1  UNL11       0.0391
     47 H          -2.7973    0.1169   -1.8399 H       1  UNL11       0.0636
     48 H           3.7846    0.7862    0.8258 H       1  UNL11       0.0635
     49 H           4.1968    0.3754   -3.3737 H       1  UNL11       0.0642
     50 H          -1.2837    0.7864    2.7886 H       1  UNL11       0.0629
     51 H          -4.4103    0.1689   -0.0137 H       1  UNL11       0.0618
     52 H          -3.6603    0.4361    2.2880 H       1  UNL11       0.0618
     53 H           2.3522    0.3180   -4.5929 H       1  UNL11       0.1424
     54 H           1.0754    1.0968   -4.0709 H       1  UNL11       0.1424
@<TRIPOS>BOND
     1     1    19    1
     2     1    20    1
     3     2    29    1
     4     3    29    1
     5     4    29    1
     6     5     9    1
     7     5    10    1
     8     5    11    1
     9     6    12    1
    10     6    13    1
    11     6    16    1
    12     7    15    1
    13     7    17    1
    14     7    18    1
    15     8    21    1
    16     8    53    1
    17     8    54    1
    18     9    12    1
    19     9    30    1
    20     9    31    1
    21    10    13    1
    22    10    32    1
    23    10    33    1
    24    11    14    1
    25    11    34    1
    26    11    35    1
    27    12    36    1
    28    12    37    1
    29    13    38    1
    30    13    39    1
    31    14    15    1
    32    14    40    1
    33    14    41    1
    34    15    42    1
    35    15    43    1
    36    16    44    1
    37    16    45    1
    38    16    46    1
    39    17    19   ar
    40    17    21   ar
    41    18    20   ar
    42    18    22   ar
    43    19    23   ar
    44    20    26   ar
    45    21    24   ar
    46    22    27   ar
    47    22    47    1
    48    23    25   ar
    49    23    48    1
    50    24    25   ar
    51    24    49    1
    52    25    29    1
    53    26    28   ar
    54    26    50    1
    55    27    28   ar
    56    27    51    1
    57    28    52    1
