139346692
  Mrv15b2304112506343D          

 54 57  0  0  0  0            999 V2000
    1.0130    0.8151    1.1961 S   0  0  0  0  0  0  0  0  0  0  0  0
    5.9892   -0.5825   -0.3273 F   0  0  0  0  0  0  0  0  0  0  0  0
    6.0752    1.6442   -0.5431 F   0  0  0  0  0  0  0  0  0  0  0  0
    6.2103    0.3378   -2.3562 F   0  0  0  0  0  0  0  0  0  0  0  0
    0.6688   -4.5568   -1.8893 N   0  0  1  0  0  0  0  0  0  0  0  0
    2.5789   -6.4375   -3.2256 N   0  0  2  0  0  0  0  0  0  0  0  0
   -0.0595    0.0303   -1.5921 N   0  0  0  0  0  0  0  0  0  0  0  0
    1.6435    0.3232   -3.9305 N   0  0  2  0  0  0  0  0  0  0  0  0
    0.1626   -5.8412   -2.4196 C   0  0  1  0  0  0  0  0  0  0  0  0
    2.1464   -4.2786   -1.9178 C   0  0  1  0  0  0  0  0  0  0  0  0
   -0.1457   -3.5433   -2.5702 C   0  0  2  0  0  0  0  0  0  0  0  0
    1.2297   -6.9360   -2.7815 C   0  0  1  0  0  0  0  0  0  0  0  0
    2.9389   -4.9925   -3.0515 C   0  0  2  0  0  0  0  0  0  0  0  0
   -0.2291   -2.3188   -1.6693 C   0  0  1  0  0  0  0  0  0  0  0  0
   -0.3830   -1.0412   -2.5160 C   0  0  1  0  0  0  0  0  0  0  0  0
    2.8125   -6.8342   -4.6132 C   0  0  0  0  0  0  0  0  0  0  0  0
    1.3173    0.3977   -1.5421 C   0  0  0  0  0  0  0  0  0  0  0  0
   -1.0551    0.3319   -0.6115 C   0  0  0  0  0  0  0  0  0  0  0  0
    1.9481    0.6376   -0.2711 C   0  0  0  0  0  0  0  0  0  0  0  0
   -0.6645    0.5921    0.7486 C   0  0  0  0  0  0  0  0  0  0  0  0
    2.1793    0.3791   -2.7036 C   0  0  0  0  0  0  0  0  0  0  0  0
   -2.4711    0.2241   -0.8794 C   0  0  0  0  0  0  0  0  0  0  0  0
    3.3691    0.6665   -0.0980 C   0  0  0  0  0  0  0  0  0  0  0  0
    3.5978    0.4201   -2.5493 C   0  0  0  0  0  0  0  0  0  0  0  0
    4.1841    0.5226   -1.2580 C   0  0  0  0  0  0  0  0  0  0  0  0
   -1.5968    0.6301    1.8305 C   0  0  0  0  0  0  0  0  0  0  0  0
   -3.4148    0.2662    0.1865 C   0  0  0  0  0  0  0  0  0  0  0  0
   -2.9770    0.4432    1.5307 C   0  0  0  0  0  0  0  0  0  0  0  0
    5.6368    0.4799   -1.1190 C   0  0  1  0  0  0  0  0  0  0  0  0
   -0.5657   -6.2594   -1.7247 H   0  0  0  0  0  0  0  0  0  0  0  0
   -0.3467   -5.5833   -3.3481 H   0  0  0  0  0  0  0  0  0  0  0  0
    2.3124   -3.2031   -1.9801 H   0  0  0  0  0  0  0  0  0  0  0  0
    2.5460   -4.7146   -1.0022 H   0  0  0  0  0  0  0  0  0  0  0  0
   -1.1475   -3.9373   -2.7414 H   0  0  0  0  0  0  0  0  0  0  0  0
    0.2798   -3.2665   -3.5347 H   0  0  0  0  0  0  0  0  0  0  0  0
    0.8217   -7.6044   -3.5397 H   0  0  0  0  0  0  0  0  0  0  0  0
    1.4087   -7.4428   -1.8333 H   0  0  0  0  0  0  0  0  0  0  0  0
    2.7838   -4.4635   -3.9918 H   0  0  0  0  0  0  0  0  0  0  0  0
    4.0145   -4.8941   -2.9052 H   0  0  0  0  0  0  0  0  0  0  0  0
   -1.0845   -2.4170   -1.0009 H   0  0  0  0  0  0  0  0  0  0  0  0
    0.6790   -2.2101   -1.0762 H   0  0  0  0  0  0  0  0  0  0  0  0
   -1.4193   -0.9420   -2.8389 H   0  0  0  0  0  0  0  0  0  0  0  0
    0.3640   -1.0811   -3.3088 H   0  0  0  0  0  0  0  0  0  0  0  0
    3.7895   -6.4732   -4.9347 H   0  0  0  0  0  0  0  0  0  0  0  0
    2.0389   -6.4039   -5.2492 H   0  0  0  0  0  0  0  0  0  0  0  0
    2.7833   -7.9210   -4.6902 H   0  0  0  0  0  0  0  0  0  0  0  0
   -2.7973    0.1169   -1.8399 H   0  0  0  0  0  0  0  0  0  0  0  0
    3.7846    0.7862    0.8258 H   0  0  0  0  0  0  0  0  0  0  0  0
    4.1968    0.3754   -3.3737 H   0  0  0  0  0  0  0  0  0  0  0  0
   -1.2837    0.7864    2.7886 H   0  0  0  0  0  0  0  0  0  0  0  0
   -4.4103    0.1689   -0.0137 H   0  0  0  0  0  0  0  0  0  0  0  0
   -3.6603    0.4361    2.2880 H   0  0  0  0  0  0  0  0  0  0  0  0
    2.3522    0.3180   -4.5929 H   0  0  0  0  0  0  0  0  0  0  0  0
    1.0754    1.0968   -4.0709 H   0  0  0  0  0  0  0  0  0  0  0  0
  1 19  1  0  0  0  0
  1 20  1  0  0  0  0
  2 29  1  0  0  0  0
  3 29  1  0  0  0  0
  4 29  1  0  0  0  0
  5  9  1  0  0  0  0
  5 10  1  0  0  0  0
  5 11  1  0  0  0  0
  6 12  1  0  0  0  0
  6 13  1  0  0  0  0
  6 16  1  0  0  0  0
  7 15  1  0  0  0  0
  7 17  1  0  0  0  0
  7 18  1  0  0  0  0
  8 21  1  0  0  0  0
  8 53  1  0  0  0  0
  8 54  1  0  0  0  0
  9 12  1  0  0  0  0
  9 30  1  0  0  0  0
  9 31  1  0  0  0  0
 10 13  1  0  0  0  0
 10 32  1  0  0  0  0
 10 33  1  0  0  0  0
 11 14  1  0  0  0  0
 11 34  1  0  0  0  0
 11 35  1  0  0  0  0
 12 36  1  0  0  0  0
 12 37  1  0  0  0  0
 13 38  1  0  0  0  0
 13 39  1  0  0  0  0
 14 15  1  0  0  0  0
 14 40  1  0  0  0  0
 14 41  1  0  0  0  0
 15 42  1  0  0  0  0
 15 43  1  0  0  0  0
 16 44  1  0  0  0  0
 16 45  1  0  0  0  0
 16 46  1  0  0  0  0
 17 19  1  0  0  0  0
 17 21  2  0  0  0  0
 18 20  1  0  0  0  0
 18 22  2  0  0  0  0
 19 23  2  0  0  0  0
 20 26  2  0  0  0  0
 21 24  1  0  0  0  0
 22 27  1  0  0  0  0
 22 47  1  0  0  0  0
 23 25  1  0  0  0  0
 23 48  1  0  0  0  0
 24 25  2  0  0  0  0
 24 49  1  0  0  0  0
 25 29  1  0  0  0  0
 26 28  1  0  0  0  0
 26 50  1  0  0  0  0
 27 28  2  0  0  0  0
 27 51  1  0  0  0  0
 28 52  1  0  0  0  0
M  END
