lig
 OpenBabel04112506353D

 54 57  0  0  0  0  0  0  0  0999 V2000
   -3.3673    2.3282    0.0858 S   0  0  0  0  0  0  0  0  0  0  0  0
   -4.3815   -3.9650    0.3362 F   0  0  0  0  0  0  0  0  0  0  0  0
   -5.2717   -2.5719    1.7486 F   0  0  0  0  0  0  0  0  0  0  0  0
   -5.8806   -2.5391   -0.3327 F   0  0  0  0  0  0  0  0  0  0  0  0
    3.8764   -0.9109   -0.3605 N   0  0  0  0  0  0  0  0  0  0  0  0
    6.5793   -1.2982    0.5896 N   0  0  0  0  0  0  0  0  0  0  0  0
   -0.6247    1.1085   -0.7244 N   0  0  0  0  0  0  0  0  0  0  0  0
   -0.2159   -1.7792   -0.9635 N   0  0  0  0  0  0  0  0  0  0  0  0
    4.8029   -1.8189   -1.0477 C   0  0  0  0  0  0  0  0  0  0  0  0
    4.6158    0.1732    0.2977 C   0  0  0  0  0  0  0  0  0  0  0  0
    2.8884   -0.3733   -1.2938 C   0  0  0  0  0  0  0  0  0  0  0  0
    5.8407   -2.3817   -0.0705 C   0  0  0  0  0  0  0  0  0  0  0  0
    5.6526   -0.3897    1.2759 C   0  0  0  0  0  0  0  0  0  0  0  0
    1.6205    0.0996   -0.5760 C   0  0  0  0  0  0  0  0  0  0  0  0
    0.5257    0.6293   -1.5016 C   0  0  0  0  0  0  0  0  0  0  0  0
    7.5658   -1.8367    1.5241 C   0  0  0  0  0  0  0  0  0  0  0  0
   -1.6516    0.1747   -0.4351 C   0  0  0  0  0  0  0  0  0  0  0  0
   -0.5903    2.4503   -0.2676 C   0  0  0  0  0  0  0  0  0  0  0  0
   -2.9322    0.6046   -0.0343 C   0  0  0  0  0  0  0  0  0  0  0  0
   -1.7655    3.1058    0.1500 C   0  0  0  0  0  0  0  0  0  0  0  0
   -1.4346   -1.2192   -0.4985 C   0  0  0  0  0  0  0  0  0  0  0  0
    0.6165    3.1781   -0.1755 C   0  0  0  0  0  0  0  0  0  0  0  0
   -3.9452   -0.3259    0.2579 C   0  0  0  0  0  0  0  0  0  0  0  0
   -2.4436   -2.1397   -0.2024 C   0  0  0  0  0  0  0  0  0  0  0  0
   -3.7013   -1.6926    0.1728 C   0  0  0  0  0  0  0  0  0  0  0  0
   -1.7244    4.4345    0.6090 C   0  0  0  0  0  0  0  0  0  0  0  0
    0.6522    4.4969    0.2860 C   0  0  0  0  0  0  0  0  0  0  0  0
   -0.5199    5.1268    0.6755 C   0  0  0  0  0  0  0  0  0  0  0  0
   -4.7866   -2.6686    0.4751 C   0  0  0  0  0  0  0  0  0  0  0  0
    5.3121   -1.3053   -1.8746 H   0  0  0  0  0  0  0  0  0  0  0  0
    4.2490   -2.6624   -1.4776 H   0  0  0  0  0  0  0  0  0  0  0  0
    5.1194    0.8110   -0.4416 H   0  0  0  0  0  0  0  0  0  0  0  0
    3.9386    0.8146    0.8718 H   0  0  0  0  0  0  0  0  0  0  0  0
    3.3082    0.4314   -1.9112 H   0  0  0  0  0  0  0  0  0  0  0  0
    2.5752   -1.1632   -1.9893 H   0  0  0  0  0  0  0  0  0  0  0  0
    5.3414   -3.0225    0.6691 H   0  0  0  0  0  0  0  0  0  0  0  0
    6.5367   -3.0150   -0.6338 H   0  0  0  0  0  0  0  0  0  0  0  0
    6.2102    0.4500    1.7084 H   0  0  0  0  0  0  0  0  0  0  0  0
    5.1408   -0.9022    2.1018 H   0  0  0  0  0  0  0  0  0  0  0  0
    1.2956   -0.6619    0.1371 H   0  0  0  0  0  0  0  0  0  0  0  0
    1.9191    0.8985    0.1077 H   0  0  0  0  0  0  0  0  0  0  0  0
    0.2425   -0.0324   -2.3257 H   0  0  0  0  0  0  0  0  0  0  0  0
    0.9482    1.4634   -2.0814 H   0  0  0  0  0  0  0  0  0  0  0  0
    8.1453   -1.0264    1.9802 H   0  0  0  0  0  0  0  0  0  0  0  0
    8.2822   -2.4782    0.9991 H   0  0  0  0  0  0  0  0  0  0  0  0
    7.1016   -2.4223    2.3258 H   0  0  0  0  0  0  0  0  0  0  0  0
    1.5737    2.7788   -0.4895 H   0  0  0  0  0  0  0  0  0  0  0  0
   -4.9361    0.0156    0.5534 H   0  0  0  0  0  0  0  0  0  0  0  0
   -2.2424   -3.2055   -0.2851 H   0  0  0  0  0  0  0  0  0  0  0  0
   -2.6334    4.9454    0.9202 H   0  0  0  0  0  0  0  0  0  0  0  0
    1.5975    5.0301    0.3313 H   0  0  0  0  0  0  0  0  0  0  0  0
   -0.4982    6.1524    1.0309 H   0  0  0  0  0  0  0  0  0  0  0  0
    0.0731   -2.6246   -0.4792 H   0  0  0  0  0  0  0  0  0  0  0  0
   -0.1679   -1.8889   -1.9724 H   0  0  0  0  0  0  0  0  0  0  0  0
  1 19  1  0  0  0  0
  1 20  1  0  0  0  0
  2 29  1  0  0  0  0
  3 29  1  0  0  0  0
  4 29  1  0  0  0  0
  5  9  1  0  0  0  0
  5 10  1  0  0  0  0
  5 11  1  0  0  0  0
  6 12  1  0  0  0  0
  6 13  1  0  0  0  0
  6 16  1  0  0  0  0
  7 15  1  0  0  0  0
  7 17  1  0  0  0  0
  7 18  1  0  0  0  0
  8 21  1  0  0  0  0
  8 53  1  0  0  0  0
  8 54  1  0  0  0  0
  9 12  1  0  0  0  0
  9 30  1  0  0  0  0
  9 31  1  0  0  0  0
 10 13  1  0  0  0  0
 10 32  1  0  0  0  0
 10 33  1  0  0  0  0
 11 14  1  0  0  0  0
 11 34  1  0  0  0  0
 11 35  1  0  0  0  0
 12 36  1  0  0  0  0
 12 37  1  0  0  0  0
 13 38  1  0  0  0  0
 13 39  1  0  0  0  0
 14 15  1  0  0  0  0
 14 40  1  0  0  0  0
 14 41  1  0  0  0  0
 15 42  1  0  0  0  0
 15 43  1  0  0  0  0
 16 44  1  0  0  0  0
 16 45  1  0  0  0  0
 16 46  1  0  0  0  0
 17 19  1  0  0  0  0
 17 21  2  0  0  0  0
 18 20  1  0  0  0  0
 18 22  2  0  0  0  0
 19 23  2  0  0  0  0
 20 26  2  0  0  0  0
 21 24  1  0  0  0  0
 22 27  1  0  0  0  0
 22 47  1  0  0  0  0
 23 25  1  0  0  0  0
 23 48  1  0  0  0  0
 24 25  2  0  0  0  0
 24 49  1  0  0  0  0
 25 29  1  0  0  0  0
 26 28  1  0  0  0  0
 26 50  1  0  0  0  0
 27 28  2  0  0  0  0
 27 51  1  0  0  0  0
 28 52  1  0  0  0  0
M  END
