139346692
  Mrv15b2304112506342D          

 54 57  0  0  0  0            999 V2000
   -0.4598   -2.5971    0.0000 S   0  0  0  0  0  0  0  0  0  0  0  0
    3.1126   -3.0096    0.0000 F   0  0  0  0  0  0  0  0  0  0  0  0
    2.8106   -1.8826    0.0000 F   0  0  0  0  0  0  0  0  0  0  0  0
    1.9856   -3.3116    0.0000 F   0  0  0  0  0  0  0  0  0  0  0  0
    0.9692    1.5279    0.0000 N   0  0  0  0  0  0  0  0  0  0  0  0
    2.3981    2.3529    0.0000 N   0  0  0  0  0  0  0  0  0  0  0  0
   -0.4598   -0.9471    0.0000 N   0  0  0  0  0  0  0  0  0  0  0  0
    0.9692   -0.1221    0.0000 N   0  0  0  0  0  0  0  0  0  0  0  0
    0.9692    2.3529    0.0000 C   0  0  0  0  0  0  0  0  0  0  0  0
    1.6836    1.1154    0.0000 C   0  0  0  0  0  0  0  0  0  0  0  0
    0.2547    1.1154    0.0000 C   0  0  0  0  0  0  0  0  0  0  0  0
    1.6836    2.7654    0.0000 C   0  0  0  0  0  0  0  0  0  0  0  0
    2.3981    1.5279    0.0000 C   0  0  0  0  0  0  0  0  0  0  0  0
    0.2547    0.2904    0.0000 C   0  0  0  0  0  0  0  0  0  0  0  0
   -0.4598   -0.1221    0.0000 C   0  0  0  0  0  0  0  0  0  0  0  0
    3.1126    2.7654    0.0000 C   0  0  0  0  0  0  0  0  0  0  0  0
    0.2547   -1.3596    0.0000 C   0  0  0  0  0  0  0  0  0  0  0  0
   -1.1742   -1.3596    0.0000 C   0  0  0  0  0  0  0  0  0  0  0  0
    0.2547   -2.1846    0.0000 C   0  0  0  0  0  0  0  0  0  0  0  0
   -1.1742   -2.1846    0.0000 C   0  0  0  0  0  0  0  0  0  0  0  0
    0.9692   -0.9471    0.0000 C   0  0  0  0  0  0  0  0  0  0  0  0
   -1.8887   -0.9471    0.0000 C   0  0  0  0  0  0  0  0  0  0  0  0
    0.9692   -2.5971    0.0000 C   0  0  0  0  0  0  0  0  0  0  0  0
    1.6836   -1.3596    0.0000 C   0  0  0  0  0  0  0  0  0  0  0  0
    1.6836   -2.1846    0.0000 C   0  0  0  0  0  0  0  0  0  0  0  0
   -1.8887   -2.5971    0.0000 C   0  0  0  0  0  0  0  0  0  0  0  0
   -2.6032   -1.3596    0.0000 C   0  0  0  0  0  0  0  0  0  0  0  0
   -2.6032   -2.1846    0.0000 C   0  0  0  0  0  0  0  0  0  0  0  0
    2.3981   -2.5971    0.0000 C   0  0  0  0  0  0  0  0  0  0  0  0
    0.5158    3.0422    0.0000 H   0  0  0  0  0  0  0  0  0  0  0  0
    0.1456    2.4009    0.0000 H   0  0  0  0  0  0  0  0  0  0  0  0
    2.2896    0.5556    0.0000 H   0  0  0  0  0  0  0  0  0  0  0  0
    1.6836    1.9404    0.0000 H   0  0  0  0  0  0  0  0  0  0  0  0
   -0.1986    1.8047    0.0000 H   0  0  0  0  0  0  0  0  0  0  0  0
   -0.5689    1.1634    0.0000 H   0  0  0  0  0  0  0  0  0  0  0  0
    2.0539    3.5027    0.0000 H   0  0  0  0  0  0  0  0  0  0  0  0
    1.3134    3.5027    0.0000 H   0  0  0  0  0  0  0  0  0  0  0  0
    2.8515    0.8386    0.0000 H   0  0  0  0  0  0  0  0  0  0  0  0
    3.2217    1.4800    0.0000 H   0  0  0  0  0  0  0  0  0  0  0  0
    0.9692    0.7029    0.0000 H   0  0  0  0  0  0  0  0  0  0  0  0
    0.2547   -0.5346    0.0000 H   0  0  0  0  0  0  0  0  0  0  0  0
   -0.9131    0.5672    0.0000 H   0  0  0  0  0  0  0  0  0  0  0  0
   -1.2834   -0.0741    0.0000 H   0  0  0  0  0  0  0  0  0  0  0  0
    3.5251    2.0509    0.0000 H   0  0  0  0  0  0  0  0  0  0  0  0
    3.8271    3.1779    0.0000 H   0  0  0  0  0  0  0  0  0  0  0  0
    2.7001    3.4799    0.0000 H   0  0  0  0  0  0  0  0  0  0  0  0
   -1.8887   -0.1221    0.0000 H   0  0  0  0  0  0  0  0  0  0  0  0
    0.9692   -3.4221    0.0000 H   0  0  0  0  0  0  0  0  0  0  0  0
    2.3981   -0.9471    0.0000 H   0  0  0  0  0  0  0  0  0  0  0  0
   -1.8887   -3.4221    0.0000 H   0  0  0  0  0  0  0  0  0  0  0  0
   -3.3177   -0.9471    0.0000 H   0  0  0  0  0  0  0  0  0  0  0  0
   -3.3177   -2.5971    0.0000 H   0  0  0  0  0  0  0  0  0  0  0  0
    1.7928   -0.0741    0.0000 H   0  0  0  0  0  0  0  0  0  0  0  0
    1.4225    0.5672    0.0000 H   0  0  0  0  0  0  0  0  0  0  0  0
  1 19  1  0  0  0  0
  1 20  1  0  0  0  0
  2 29  1  0  0  0  0
  3 29  1  0  0  0  0
  4 29  1  0  0  0  0
  5  9  1  0  0  0  0
  5 10  1  0  0  0  0
  5 11  1  0  0  0  0
  6 12  1  0  0  0  0
  6 13  1  0  0  0  0
  6 16  1  0  0  0  0
  7 15  1  0  0  0  0
  7 17  1  0  0  0  0
  7 18  1  0  0  0  0
  8 21  1  0  0  0  0
  8 53  1  0  0  0  0
  8 54  1  0  0  0  0
  9 12  1  0  0  0  0
  9 30  1  0  0  0  0
  9 31  1  0  0  0  0
 10 13  1  0  0  0  0
 10 32  1  0  0  0  0
 10 33  1  0  0  0  0
 11 14  1  0  0  0  0
 11 34  1  0  0  0  0
 11 35  1  0  0  0  0
 12 36  1  0  0  0  0
 12 37  1  0  0  0  0
 13 38  1  0  0  0  0
 13 39  1  0  0  0  0
 14 15  1  0  0  0  0
 14 40  1  0  0  0  0
 14 41  1  0  0  0  0
 15 42  1  0  0  0  0
 15 43  1  0  0  0  0
 16 44  1  0  0  0  0
 16 45  1  0  0  0  0
 16 46  1  0  0  0  0
 17 19  1  0  0  0  0
 17 21  2  0  0  0  0
 18 20  1  0  0  0  0
 18 22  2  0  0  0  0
 19 23  2  0  0  0  0
 20 26  2  0  0  0  0
 21 24  1  0  0  0  0
 22 27  1  0  0  0  0
 22 47  1  0  0  0  0
 23 25  1  0  0  0  0
 23 48  1  0  0  0  0
 24 25  2  0  0  0  0
 24 49  1  0  0  0  0
 25 29  1  0  0  0  0
 26 28  1  0  0  0  0
 26 50  1  0  0  0  0
 27 28  2  0  0  0  0
 27 51  1  0  0  0  0
 28 52  1  0  0  0  0
M  END
