129065244
  MJ221101                      

 53 56  0  0  1  0  0  0  0  0999 V2000
    3.0512    1.0330    0.0000 O   0  0  0  0  0  0  0  0  0  0  0  0
    0.1933   -1.4419    0.0000 O   0  0  0  0  0  0  0  0  0  0  0  0
    1.6221   -1.4419    0.0000 O   0  0  0  0  0  0  0  0  0  0  0  0
   -1.2356   -1.4419    0.0000 O   0  0  0  0  0  0  0  0  0  0  0  0
    3.7657   -0.2044    0.0000 O   0  0  0  0  0  0  0  0  0  0  0  0
   -2.6646   -1.4419    0.0000 O   0  0  0  0  0  0  0  0  0  0  0  0
    1.6221    1.8581    0.0000 N   0  0  0  0  0  0  0  0  0  0  0  0
    0.9078    0.6206    0.0000 C   0  0  0  0  0  0  0  0  0  0  0  0
    0.9078   -0.2044    0.0000 C   0  0  0  0  0  0  0  0  0  0  0  0
    0.1933    1.0330    0.0000 C   0  0  0  0  0  0  0  0  0  0  0  0
    1.6221    1.0330    0.0000 C   0  0  0  0  0  0  0  0  0  0  0  0
   -0.5212    0.6206    0.0000 C   0  0  0  0  0  0  0  0  0  0  0  0
    0.1933   -0.6169    0.0000 C   0  0  0  0  0  0  0  0  0  0  0  0
   -0.5212   -0.2044    0.0000 C   0  0  0  0  0  0  0  0  0  0  0  0
    1.6221   -0.6169    0.0000 C   0  0  0  0  0  0  0  0  0  0  0  0
    2.3367    0.6206    0.0000 C   0  0  0  0  0  0  0  0  0  0  0  0
    2.3367   -0.2044    0.0000 C   0  0  0  0  0  0  0  0  0  0  0  0
   -1.2356    1.0330    0.0000 C   0  0  0  0  0  0  0  0  0  0  0  0
   -1.2356   -0.6169    0.0000 C   0  0  0  0  0  0  0  0  0  0  0  0
   -1.9501    0.6206    0.0000 C   0  0  0  0  0  0  0  0  0  0  0  0
   -1.9501   -0.2044    0.0000 C   0  0  0  0  0  0  0  0  0  0  0  0
   -1.2356    1.8581    0.0000 C   0  0  0  0  0  0  0  0  0  0  0  0
    3.0512   -0.6169    0.0000 C   0  0  0  0  0  0  0  0  0  0  0  0
   -2.6646   -0.6169    0.0000 C   0  0  0  0  0  0  0  0  0  0  0  0
   -2.6646    1.0330    0.0000 C   0  0  0  0  0  0  0  0  0  0  0  0
   -3.3790   -0.2044    0.0000 C   0  0  0  0  0  0  0  0  0  0  0  0
   -3.3790    0.6206    0.0000 C   0  0  0  0  0  0  0  0  0  0  0  0
    3.0512   -1.4419    0.0000 C   0  0  0  0  0  0  0  0  0  0  0  0
    3.7657    0.6206    0.0000 C   0  0  0  0  0  0  0  0  0  0  0  0
   -4.0935   -0.6169    0.0000 C   0  0  0  0  0  0  0  0  0  0  0  0
    0.9078    1.4456    0.0000 H   0  0  0  0  0  0  0  0  0  0  0  0
    1.6221    0.2081    0.0000 H   0  0  0  0  0  0  0  0  0  0  0  0
    0.0499    1.8455    0.0000 H   0  0  0  0  0  0  0  0  0  0  0  0
   -0.4387    1.5633    0.0000 H   0  0  0  0  0  0  0  0  0  0  0  0
    2.3367    1.4456    0.0000 H   0  0  0  0  0  0  0  0  0  0  0  0
    2.3367    2.2706    0.0000 H   0  0  0  0  0  0  0  0  0  0  0  0
    0.9078    2.2706    0.0000 H   0  0  0  0  0  0  0  0  0  0  0  0
   -0.7309    2.5106    0.0000 H   0  0  0  0  0  0  0  0  0  0  0  0
   -1.7071    2.5351    0.0000 H   0  0  0  0  0  0  0  0  0  0  0  0
   -2.0228    1.6109    0.0000 H   0  0  0  0  0  0  0  0  0  0  0  0
   -3.1495    1.7005    0.0000 H   0  0  0  0  0  0  0  0  0  0  0  0
   -1.9501   -1.8544    0.0000 H   0  0  0  0  0  0  0  0  0  0  0  0
   -4.0935    1.0330    0.0000 H   0  0  0  0  0  0  0  0  0  0  0  0
    2.2262   -1.4419    0.0000 H   0  0  0  0  0  0  0  0  0  0  0  0
    3.0512   -2.2669    0.0000 H   0  0  0  0  0  0  0  0  0  0  0  0
    3.8762   -1.4419    0.0000 H   0  0  0  0  0  0  0  0  0  0  0  0
    4.4801    0.2081    0.0000 H   0  0  0  0  0  0  0  0  0  0  0  0
    4.4801    1.0330    0.0000 H   0  0  0  0  0  0  0  0  0  0  0  0
    3.7657    1.4456    0.0000 H   0  0  0  0  0  0  0  0  0  0  0  0
   -4.5060    0.0975    0.0000 H   0  0  0  0  0  0  0  0  0  0  0  0
   -4.8080   -1.0294    0.0000 H   0  0  0  0  0  0  0  0  0  0  0  0
   -3.6810   -1.3314    0.0000 H   0  0  0  0  0  0  0  0  0  0  0  0
   -3.3790   -1.8544    0.0000 H   0  0  0  0  0  0  0  0  0  0  0  0
  1 16  1  0  0  0  0
  1 29  1  0  0  0  0
  2 13  2  0  0  0  0
  3 15  2  0  0  0  0
  4 19  1  0  0  0  0
  4 42  1  0  0  0  0
  5 23  2  0  0  0  0
  6 24  1  0  0  0  0
  6 53  1  0  0  0  0
 11  7  1  1  0  0  0
  7 36  1  0  0  0  0
  7 37  1  0  0  0  0
  8  9  1  0  0  0  0
  8 10  1  1  0  0  0
  8 11  1  0  0  0  0
  8 31  1  1  0  0  0
  9 13  1  1  0  0  0
  9 15  1  0  0  0  0
  9 32  1  1  0  0  0
 10 12  1  0  0  0  0
 10 33  1  0  0  0  0
 10 34  1  0  0  0  0
 11 16  1  0  0  0  0
 11 35  1  6  0  0  0
 12 14  2  0  0  0  0
 12 18  1  0  0  0  0
 13 14  1  0  0  0  0
 14 19  1  0  0  0  0
 15 17  1  0  0  0  0
 16 17  2  0  0  0  0
 17 23  1  0  0  0  0
 18 20  2  0  0  0  0
 18 22  1  0  0  0  0
 19 21  2  0  0  0  0
 20 21  1  0  0  0  0
 20 25  1  0  0  0  0
 21 24  1  0  0  0  0
 22 38  1  0  0  0  0
 22 39  1  0  0  0  0
 22 40  1  0  0  0  0
 23 28  1  0  0  0  0
 24 26  2  0  0  0  0
 25 27  2  0  0  0  0
 25 41  1  0  0  0  0
 26 27  1  0  0  0  0
 26 30  1  0  0  0  0
 27 43  1  0  0  0  0
 28 44  1  0  0  0  0
 28 45  1  0  0  0  0
 28 46  1  0  0  0  0
 29 47  1  0  0  0  0
 29 48  1  0  0  0  0
 29 49  1  0  0  0  0
 30 50  1  0  0  0  0
 30 51  1  0  0  0  0
 30 52  1  0  0  0  0
M  END
