129065244
  Mrv15b2304112506553D          

 53 56  0  0  1  0            999 V2000
    2.4841    5.2090   -0.7895 O   0  0  0  0  0  0  0  0  0  0  0  0
   -0.7390    1.8045   -5.1173 O   0  0  0  0  0  0  0  0  0  0  0  0
   -1.3345    3.7514   -3.0245 O   0  0  0  0  0  0  0  0  0  0  0  0
   -2.1068   -0.3449   -5.2344 O   0  0  0  0  0  0  0  0  0  0  0  0
   -0.2065    6.2608   -3.4588 O   0  0  0  0  0  0  0  0  0  0  0  0
   -3.5395   -2.4433   -5.2806 O   0  0  0  0  0  0  0  0  0  0  0  0
    3.6180    2.7735   -1.5530 N   0  0  2  0  0  0  0  0  0  0  0  0
    1.4966    1.7636   -2.2321 C   0  0  2  0  0  0  0  0  0  0  0  0
    0.6048    2.4138   -3.3270 C   0  0  1  0  0  0  0  0  0  0  0  0
    0.6789    0.7778   -1.3681 C   0  0  2  0  0  0  0  0  0  0  0  0
    2.1795    2.8399   -1.2968 C   0  0  2  0  0  0  0  0  0  0  0  0
   -0.2010   -0.1921   -2.0924 C   0  0  0  0  0  0  0  0  0  0  0  0
   -0.3042    1.4337   -3.9944 C   0  0  0  0  0  0  0  0  0  0  0  0
   -0.7040    0.1802   -3.3818 C   0  0  0  0  0  0  0  0  0  0  0  0
   -0.1009    3.6085   -2.8111 C   0  0  0  0  0  0  0  0  0  0  0  0
    1.7182    4.2522   -1.4025 C   0  0  0  0  0  0  0  0  0  0  0  0
    0.6230    4.6019   -2.1333 C   0  0  0  0  0  0  0  0  0  0  0  0
   -0.5947   -1.4319   -1.4841 C   0  0  0  0  0  0  0  0  0  0  0  0
   -1.6218   -0.6982   -4.0154 C   0  0  0  0  0  0  0  0  0  0  0  0
   -1.5476   -2.2835   -2.1377 C   0  0  0  0  0  0  0  0  0  0  0  0
   -2.0702   -1.9118   -3.4233 C   0  0  0  0  0  0  0  0  0  0  0  0
   -0.0278   -1.8408   -0.1479 C   0  0  0  0  0  0  0  0  0  0  0  0
    0.1887    5.9151   -2.3223 C   0  0  0  0  0  0  0  0  0  0  0  0
   -3.0259   -2.7663   -4.0612 C   0  0  0  0  0  0  0  0  0  0  0  0
   -2.0249   -3.4996   -1.5651 C   0  0  0  0  0  0  0  0  0  0  0  0
   -3.4757   -3.9708   -3.4574 C   0  0  0  0  0  0  0  0  0  0  0  0
   -2.9588   -4.3221   -2.1988 C   0  0  0  0  0  0  0  0  0  0  0  0
    0.0428    6.9557   -1.2884 C   0  0  0  0  0  0  0  0  0  0  0  0
    2.2849    5.3424    0.6328 C   0  0  0  0  0  0  0  0  0  0  0  0
   -4.4621   -4.8783   -4.0843 C   0  0  0  0  0  0  0  0  0  0  0  0
    2.2445    1.1665   -2.7742 H   0  0  0  0  0  0  0  0  0  0  0  0
    1.2830    2.7879   -4.1087 H   0  0  0  0  0  0  0  0  0  0  0  0
    0.0856    1.3356   -0.6435 H   0  0  0  0  0  0  0  0  0  0  0  0
    1.3440    0.2194   -0.7094 H   0  0  0  0  0  0  0  0  0  0  0  0
    2.0906    2.5498   -0.2397 H   0  0  0  0  0  0  0  0  0  0  0  0
    3.7988    2.9819   -2.5371 H   0  0  0  0  0  0  0  0  0  0  0  0
    3.9599    1.8353   -1.3352 H   0  0  0  0  0  0  0  0  0  0  0  0
   -0.2855   -1.0916    0.6007 H   0  0  0  0  0  0  0  0  0  0  0  0
   -0.4448   -2.8046    0.1441 H   0  0  0  0  0  0  0  0  0  0  0  0
    1.0566   -1.9217   -0.2227 H   0  0  0  0  0  0  0  0  0  0  0  0
   -1.7025   -3.8258   -0.6509 H   0  0  0  0  0  0  0  0  0  0  0  0
   -1.3643   -0.2536   -5.8674 H   0  0  0  0  0  0  0  0  0  0  0  0
   -3.2457   -5.1764   -1.7159 H   0  0  0  0  0  0  0  0  0  0  0  0
   -0.6068    6.5895   -0.4935 H   0  0  0  0  0  0  0  0  0  0  0  0
   -0.3947    7.8500   -1.7322 H   0  0  0  0  0  0  0  0  0  0  0  0
    1.0221    7.1971   -0.8751 H   0  0  0  0  0  0  0  0  0  0  0  0
    2.9378    6.1251    1.0192 H   0  0  0  0  0  0  0  0  0  0  0  0
    1.2459    5.6053    0.8311 H   0  0  0  0  0  0  0  0  0  0  0  0
    2.5206    4.3978    1.1229 H   0  0  0  0  0  0  0  0  0  0  0  0
   -5.3967   -4.3418   -4.2480 H   0  0  0  0  0  0  0  0  0  0  0  0
   -4.6419   -5.7292   -3.4272 H   0  0  0  0  0  0  0  0  0  0  0  0
   -4.0744   -5.2324   -5.0395 H   0  0  0  0  0  0  0  0  0  0  0  0
   -4.1731   -3.1359   -5.5621 H   0  0  0  0  0  0  0  0  0  0  0  0
  1 16  1  0  0  0  0
  1 29  1  0  0  0  0
  2 13  2  0  0  0  0
  3 15  2  0  0  0  0
  4 19  1  0  0  0  0
  4 42  1  0  0  0  0
  5 23  2  0  0  0  0
  6 24  1  0  0  0  0
  6 53  1  0  0  0  0
 11  7  1  0  0  0  0
  7 36  1  0  0  0  0
  7 37  1  0  0  0  0
  8  9  1  0  0  0  0
  8 10  1  0  0  0  0
  8 11  1  0  0  0  0
  8 31  1  0  0  0  0
  9 13  1  0  0  0  0
  9 15  1  0  0  0  0
  9 32  1  0  0  0  0
 10 12  1  0  0  0  0
 10 33  1  0  0  0  0
 10 34  1  0  0  0  0
 11 16  1  0  0  0  0
 11 35  1  0  0  0  0
 12 14  2  0  0  0  0
 12 18  1  0  0  0  0
 13 14  1  0  0  0  0
 14 19  1  0  0  0  0
 15 17  1  0  0  0  0
 16 17  2  0  0  0  0
 17 23  1  0  0  0  0
 18 20  2  0  0  0  0
 18 22  1  0  0  0  0
 19 21  2  0  0  0  0
 20 21  1  0  0  0  0
 20 25  1  0  0  0  0
 21 24  1  0  0  0  0
 22 38  1  0  0  0  0
 22 39  1  0  0  0  0
 22 40  1  0  0  0  0
 23 28  1  0  0  0  0
 24 26  2  0  0  0  0
 25 27  2  0  0  0  0
 25 41  1  0  0  0  0
 26 27  1  0  0  0  0
 26 30  1  0  0  0  0
 27 43  1  0  0  0  0
 28 44  1  0  0  0  0
 28 45  1  0  0  0  0
 28 46  1  0  0  0  0
 29 47  1  0  0  0  0
 29 48  1  0  0  0  0
 29 49  1  0  0  0  0
 30 50  1  0  0  0  0
 30 51  1  0  0  0  0
 30 52  1  0  0  0  0
M  END
