@<TRIPOS>MOLECULE
lig
 53 56 0 0 0
SMALL
GASTEIGER

@<TRIPOS>ATOM
      1 O           2.4841    5.2090   -0.7895 O.2     1  UNL11      -0.4970
      2 O          -0.7390    1.8045   -5.1173 O.2     1  UNL11      -0.2912
      3 O          -1.3345    3.7514   -3.0245 O.2     1  UNL11      -0.2911
      4 O          -2.1068   -0.3449   -5.2344 O.2     1  UNL11      -0.5053
      5 O          -0.2065    6.2608   -3.4588 O.2     1  UNL11      -0.2921
      6 O          -3.5395   -2.4433   -5.2806 O.2     1  UNL11      -0.5058
      7 N           3.6180    2.7735   -1.5530 N.3     1  UNL11      -0.3209
      8 C           1.4966    1.7636   -2.2321 C.3     1  UNL11       0.0022
      9 C           0.6048    2.4138   -3.3270 C.3     1  UNL11       0.0901
     10 C           0.6789    0.7778   -1.3681 C.3     1  UNL11      -0.0209
     11 C           2.1795    2.8399   -1.2968 C.3     1  UNL11       0.0681
     12 C          -0.2010   -0.1921   -2.0924 C.3     1  UNL11      -0.0295
     13 C          -0.3042    1.4337   -3.9944 C.2     1  UNL11       0.1778
     14 C          -0.7040    0.1802   -3.3818 C.3     1  UNL11       0.0637
     15 C          -0.1009    3.6085   -2.8111 C.2     1  UNL11       0.1806
     16 C           1.7182    4.2522   -1.4025 C.2     1  UNL11       0.1280
     17 C           0.6230    4.6019   -2.1333 C.2     1  UNL11       0.0990
     18 C          -0.5947   -1.4319   -1.4841 C.3     1  UNL11      -0.0386
     19 C          -1.6218   -0.6982   -4.0154 C.3     1  UNL11       0.1388
     20 C          -1.5476   -2.2835   -2.1377 C.3     1  UNL11      -0.0077
     21 C          -2.0702   -1.9118   -3.4233 C.3     1  UNL11       0.0661
     22 C          -0.0278   -1.8408   -0.1479 C.3     1  UNL11      -0.0389
     23 C           0.1887    5.9151   -2.3223 C.2     1  UNL11       0.1667
     24 C          -3.0259   -2.7663   -4.0612 C.3     1  UNL11       0.1309
     25 C          -2.0249   -3.4996   -1.5651 C.3     1  UNL11      -0.0532
     26 C          -3.4757   -3.9708   -3.4574 C.3     1  UNL11      -0.0083
     27 C          -2.9588   -4.3221   -2.1988 C.3     1  UNL11      -0.0548
     28 C           0.0428    6.9557   -1.2884 C.3     1  UNL11      -0.0012
     29 C           2.2849    5.3424    0.6328 C.3     1  UNL11       0.0784
     30 C          -4.4621   -4.8783   -4.0843 C.3     1  UNL11      -0.0362
     31 H           2.2445    1.1665   -2.7742 H       1  UNL11       0.0334
     32 H           1.2830    2.7879   -4.1087 H       1  UNL11       0.0466
     33 H           0.0856    1.3356   -0.6435 H       1  UNL11       0.0317
     34 H           1.3440    0.2194   -0.7094 H       1  UNL11       0.0317
     35 H           2.0906    2.5498   -0.2397 H       1  UNL11       0.0542
     36 H           3.7988    2.9819   -2.5371 H       1  UNL11       0.1189
     37 H           3.9599    1.8353   -1.3352 H       1  UNL11       0.1189
     38 H          -0.2855   -1.0916    0.6007 H       1  UNL11       0.0278
     39 H          -0.4448   -2.8046    0.1441 H       1  UNL11       0.0278
     40 H           1.0566   -1.9217   -0.2227 H       1  UNL11       0.0278
     41 H          -1.7025   -3.8258   -0.6509 H       1  UNL11       0.0624
     42 H          -1.3643   -0.2536   -5.8674 H       1  UNL11       0.2922
     43 H          -3.2457   -5.1764   -1.7159 H       1  UNL11       0.0622
     44 H          -0.6068    6.5895   -0.4935 H       1  UNL11       0.0309
     45 H          -0.3947    7.8500   -1.7322 H       1  UNL11       0.0309
     46 H           1.0221    7.1971   -0.8751 H       1  UNL11       0.0309
     47 H           2.9378    6.1251    1.0192 H       1  UNL11       0.0660
     48 H           1.2459    5.6053    0.8311 H       1  UNL11       0.0660
     49 H           2.5206    4.3978    1.1229 H       1  UNL11       0.0660
     50 H          -5.3967   -4.3418   -4.2480 H       1  UNL11       0.0279
     51 H          -4.6419   -5.7292   -3.4272 H       1  UNL11       0.0279
     52 H          -4.0744   -5.2324   -5.0395 H       1  UNL11       0.0279
     53 H          -4.1731   -3.1359   -5.5621 H       1  UNL11       0.2922
@<TRIPOS>BOND
     1     1    16    1
     2     1    29    1
     3     2    13    2
     4     3    15    2
     5     4    19    1
     6     4    42    1
     7     5    23    2
     8     6    24    1
     9     6    53    1
    10    11     7    1
    11     7    36    1
    12     7    37    1
    13     8     9    1
    14     8    10    1
    15     8    11    1
    16     8    31    1
    17     9    13    1
    18     9    15    1
    19     9    32    1
    20    10    12    1
    21    10    33    1
    22    10    34    1
    23    11    16    1
    24    11    35    1
    25    12    14   ar
    26    12    18   ar
    27    13    14    1
    28    14    19   ar
    29    15    17    1
    30    16    17    2
    31    17    23    1
    32    18    20   ar
    33    18    22    1
    34    19    21   ar
    35    20    21   ar
    36    20    25   ar
    37    21    24   ar
    38    22    38    1
    39    22    39    1
    40    22    40    1
    41    23    28    1
    42    24    26   ar
    43    25    27   ar
    44    25    41    1
    45    26    27   ar
    46    26    30    1
    47    27    43    1
    48    28    44    1
    49    28    45    1
    50    28    46    1
    51    29    47    1
    52    29    48    1
    53    29    49    1
    54    30    50    1
    55    30    51    1
    56    30    52    1
