129065244
  -OEChem-04112506543D

 53 56  0     1  0  0  0  0  0999 V2000
   -5.0510    1.3516   -0.2289 O   0  0  0  0  0  0  0  0  0  0  0  0
    0.1000   -2.7600   -0.9778 O   0  0  0  0  0  0  0  0  0  0  0  0
   -2.1020   -2.1062    1.1143 O   0  0  0  0  0  0  0  0  0  0  0  0
    2.4968   -2.3853   -0.5197 O   0  0  0  0  0  0  0  0  0  0  0  0
   -5.6822   -0.9345    1.4757 O   0  0  0  0  0  0  0  0  0  0  0  0
    4.9339   -1.9240    0.0141 O   0  0  0  0  0  0  0  0  0  0  0  0
   -3.6887    0.3938   -2.8225 N   0  0  0  0  0  0  0  0  0  0  0  0
   -1.6215    0.3981   -1.4664 C   0  0  2  0  0  0  0  0  0  0  0  0
   -1.5904   -1.0580   -0.9912 C   0  0  1  0  0  0  0  0  0  0  0  0
   -0.7910    1.2867   -0.5217 C   0  0  0  0  0  0  0  0  0  0  0  0
   -3.0722    0.9127   -1.5946 C   0  0  2  0  0  0  0  0  0  0  0  0
    0.6100    0.7612   -0.3607 C   0  0  0  0  0  0  0  0  0  0  0  0
   -0.1622   -1.5653   -0.8614 C   0  0  0  0  0  0  0  0  0  0  0  0
    0.9099   -0.5956   -0.5199 C   0  0  0  0  0  0  0  0  0  0  0  0
   -2.4019   -1.2487    0.2836 C   0  0  0  0  0  0  0  0  0  0  0  0
   -3.9218    0.5640   -0.3907 C   0  0  0  0  0  0  0  0  0  0  0  0
   -3.6188   -0.4055    0.4907 C   0  0  0  0  0  0  0  0  0  0  0  0
    1.6372    1.6461    0.0002 C   0  0  0  0  0  0  0  0  0  0  0  0
    2.2221   -1.0561   -0.3489 C   0  0  0  0  0  0  0  0  0  0  0  0
    2.9575    1.2005    0.1772 C   0  0  0  0  0  0  0  0  0  0  0  0
    3.2542   -0.1689   -0.0028 C   0  0  0  0  0  0  0  0  0  0  0  0
    1.3073    3.0970    0.2156 C   0  0  0  0  0  0  0  0  0  0  0  0
   -4.5034   -0.6267    1.6453 C   0  0  0  0  0  0  0  0  0  0  0  0
    4.5751   -0.6137    0.1725 C   0  0  0  0  0  0  0  0  0  0  0  0
    3.9887    2.0869    0.5294 C   0  0  0  0  0  0  0  0  0  0  0  0
    5.5881    0.2802    0.5205 C   0  0  0  0  0  0  0  0  0  0  0  0
    5.2952    1.6286    0.6992 C   0  0  0  0  0  0  0  0  0  0  0  0
   -3.9148   -0.4725    3.0219 C   0  0  0  0  0  0  0  0  0  0  0  0
   -4.7496    2.4982    0.5380 C   0  0  0  0  0  0  0  0  0  0  0  0
    6.9956   -0.1844    0.7089 C   0  0  0  0  0  0  0  0  0  0  0  0
   -1.1375    0.4487   -2.4544 H   0  0  0  0  0  0  0  0  0  0  0  0
   -2.0648   -1.6835   -1.7602 H   0  0  0  0  0  0  0  0  0  0  0  0
   -1.2541    1.3754    0.4677 H   0  0  0  0  0  0  0  0  0  0  0  0
   -0.7808    2.2788   -0.9874 H   0  0  0  0  0  0  0  0  0  0  0  0
   -3.0306    2.0033   -1.7027 H   0  0  0  0  0  0  0  0  0  0  0  0
   -3.1032    0.6259   -3.6240 H   0  0  0  0  0  0  0  0  0  0  0  0
   -4.5788    0.8657   -2.9803 H   0  0  0  0  0  0  0  0  0  0  0  0
    1.5443    3.6766   -0.6822 H   0  0  0  0  0  0  0  0  0  0  0  0
    1.8463    3.5156    1.0715 H   0  0  0  0  0  0  0  0  0  0  0  0
    0.2628    3.2768    0.4832 H   0  0  0  0  0  0  0  0  0  0  0  0
    3.8311    3.1530    0.6600 H   0  0  0  0  0  0  0  0  0  0  0  0
    1.8522   -2.7878   -1.1221 H   0  0  0  0  0  0  0  0  0  0  0  0
    6.0728    2.3394    0.9664 H   0  0  0  0  0  0  0  0  0  0  0  0
   -4.5806    0.1484    3.6278 H   0  0  0  0  0  0  0  0  0  0  0  0
   -2.9395    0.0208    2.9795 H   0  0  0  0  0  0  0  0  0  0  0  0
   -3.8008   -1.4577    3.4806 H   0  0  0  0  0  0  0  0  0  0  0  0
   -5.6745    3.0672    0.6734 H   0  0  0  0  0  0  0  0  0  0  0  0
   -4.0330    3.1488    0.0256 H   0  0  0  0  0  0  0  0  0  0  0  0
   -4.3706    2.2407    1.5328 H   0  0  0  0  0  0  0  0  0  0  0  0
    7.0629   -0.8917    1.5422 H   0  0  0  0  0  0  0  0  0  0  0  0
    7.3793   -0.6475   -0.2065 H   0  0  0  0  0  0  0  0  0  0  0  0
    7.6662    0.6497    0.9448 H   0  0  0  0  0  0  0  0  0  0  0  0
    5.8589   -2.0903    0.2472 H   0  0  0  0  0  0  0  0  0  0  0  0
  1 16  1  0  0  0  0
  1 29  1  0  0  0  0
  2 13  2  0  0  0  0
  3 15  2  0  0  0  0
  4 19  1  0  0  0  0
  4 42  1  0  0  0  0
  5 23  2  0  0  0  0
  6 24  1  0  0  0  0
  6 53  1  0  0  0  0
  7 11  1  0  0  0  0
  7 36  1  0  0  0  0
  7 37  1  0  0  0  0
  8  9  1  0  0  0  0
  8 10  1  0  0  0  0
  8 11  1  0  0  0  0
  8 31  1  0  0  0  0
  9 13  1  0  0  0  0
  9 15  1  0  0  0  0
  9 32  1  0  0  0  0
 10 12  1  0  0  0  0
 10 33  1  0  0  0  0
 10 34  1  0  0  0  0
 11 16  1  0  0  0  0
 11 35  1  0  0  0  0
 12 14  2  0  0  0  0
 12 18  1  0  0  0  0
 13 14  1  0  0  0  0
 14 19  1  0  0  0  0
 15 17  1  0  0  0  0
 16 17  2  0  0  0  0
 17 23  1  0  0  0  0
 18 20  2  0  0  0  0
 18 22  1  0  0  0  0
 19 21  2  0  0  0  0
 20 21  1  0  0  0  0
 20 25  1  0  0  0  0
 21 24  1  0  0  0  0
 22 38  1  0  0  0  0
 22 39  1  0  0  0  0
 22 40  1  0  0  0  0
 23 28  1  0  0  0  0
 24 26  2  0  0  0  0
 25 27  2  0  0  0  0
 25 41  1  0  0  0  0
 26 27  1  0  0  0  0
 26 30  1  0  0  0  0
 27 43  1  0  0  0  0
 28 44  1  0  0  0  0
 28 45  1  0  0  0  0
 28 46  1  0  0  0  0
 29 47  1  0  0  0  0
 29 48  1  0  0  0  0
 29 49  1  0  0  0  0
 30 50  1  0  0  0  0
 30 51  1  0  0  0  0
 30 52  1  0  0  0  0
M  END
> <PUBCHEM_COMPOUND_CID>
129065244

> <PUBCHEM_CONFORMER_RMSD>
0.8

> <PUBCHEM_CONFORMER_DIVERSEORDER>
1
2
6
3
5
4

> <PUBCHEM_MMFF94_PARTIAL_CHARGES>
33
1 -0.36
10 0.14
11 0.41
12 -0.14
13 0.42
14 0.09
15 0.49
16 -0.06
17 0.03
18 -0.14
19 0.08
2 -0.57
22 0.14
23 0.49
24 0.08
25 -0.15
26 -0.14
27 -0.15
28 0.06
29 0.28
3 -0.57
30 0.14
36 0.36
37 0.36
4 -0.53
41 0.15
42 0.45
43 0.15
5 -0.57
53 0.45
6 -0.53
7 -0.99
9 0.12

> <PUBCHEM_EFFECTIVE_ROTOR_COUNT>
2.4

> <PUBCHEM_PHARMACOPHORE_FEATURES>
13
1 1 acceptor
1 2 acceptor
1 3 acceptor
1 4 donor
1 5 acceptor
1 6 donor
1 7 cation
1 7 donor
1 9 anion
6 12 14 18 19 20 21 rings
6 20 21 24 25 26 27 rings
6 8 9 10 12 13 14 rings
6 8 9 11 15 16 17 rings

> <PUBCHEM_HEAVY_ATOM_COUNT>
30

> <PUBCHEM_ATOM_DEF_STEREO_COUNT>
1

> <PUBCHEM_ATOM_UDEF_STEREO_COUNT>
2

> <PUBCHEM_BOND_DEF_STEREO_COUNT>
0

> <PUBCHEM_BOND_UDEF_STEREO_COUNT>
0

> <PUBCHEM_ISOTOPIC_ATOM_COUNT>
0

> <PUBCHEM_COMPONENT_COUNT>
1

> <PUBCHEM_CACTVS_TAUTO_COUNT>
999

> <PUBCHEM_CONFORMER_ID>
07B1611C00000001

> <PUBCHEM_MMFF94_ENERGY>
101.9785

> <PUBCHEM_FEATURE_SELFOVERLAP>
66.094

> <PUBCHEM_SHAPE_FINGERPRINT>
10 15 18187077408374154760
105312 117 14261362327581368369
10675989 125 16748160494746346660
10906281 52 18272093799296572660
11089746 13 16630520761341318624
11370993 144 18335422335470660793
11545043 162 17530960297832533844
11640471 11 16916799448440167899
12236239 1 17275379893850632455
12422481 6 18407760326744199540
12633257 1 18264219156499273123
13140716 1 18125437755433143936
13402501 40 18334575741471222595
13583140 156 17749373884675263327
13782708 43 17822013124606979203
14294032 229 15267073506749317939
14790565 3 18341895212380470620
14955137 171 18334863848384405740
15081414 286 18272376373732215252
15163728 17 14547362851344767683
15196674 1 18340759447033151100
15238133 3 18334869289780831412
15484559 13 16181851478021245164
1601671 61 18413387644624865428
16988056 13 13600806287404886849
17980427 23 16773513373467398408
1813 80 16371007433609037830
20511986 3 17203032007109931216
20739085 24 18341347621150549732
21033648 29 18337654386909272192
21033650 10 15481852193232593048
21267235 1 18411139118087618286
21421861 104 18189036626731592410
21623969 137 18409169917962441178
21756936 100 16773803614572398355
21792961 116 18187640264233694014
22122407 14 18060426785436783121
22182313 1 18335421227527529982
23559900 14 17678184801665630918
23569943 247 17701258023816939878
335352 9 18342167870131525876
3459 110 18264495151187631603
350125 39 18198900512330715895
3552219 110 17059208328177970287
5081480 168 16986064239619462812
5104073 3 18334294219223563506
5265222 85 17458920327037497090
6009941 240 17894628119526929545
602551 16 16732988643010042184

> <PUBCHEM_SHAPE_MULTIPOLES>
577.19
13.4
2.58
1.69
8.1
0.42
0.33
1.57
5.38
0.56
-0.01
-3.22
-0.24
1.25

> <PUBCHEM_SHAPE_SELFOVERLAP>
1285.386

> <PUBCHEM_SHAPE_VOLUME>
304.8

> <PUBCHEM_COORDINATE_TYPE>
2
5
10

$$$$
