lig
 OpenBabel04112506553D

 53 56  0  0  1  0  0  0  0  0999 V2000
   -5.0510    1.3516   -0.2289 O   0  0  0  0  0  0  0  0  0  0  0  0
    0.1000   -2.7600   -0.9778 O   0  0  0  0  0  0  0  0  0  0  0  0
   -2.1020   -2.1062    1.1143 O   0  0  0  0  0  0  0  0  0  0  0  0
    2.4968   -2.3853   -0.5197 O   0  0  0  0  0  0  0  0  0  0  0  0
   -5.6822   -0.9345    1.4757 O   0  0  0  0  0  0  0  0  0  0  0  0
    4.9339   -1.9240    0.0141 O   0  0  0  0  0  0  0  0  0  0  0  0
   -3.6887    0.3938   -2.8225 N   0  0  0  0  0  0  0  0  0  0  0  0
   -1.6215    0.3981   -1.4664 C   0  0  2  0  0  0  0  0  0  0  0  0
   -1.5904   -1.0580   -0.9912 C   0  0  1  0  0  0  0  0  0  0  0  0
   -0.7910    1.2867   -0.5217 C   0  0  0  0  0  0  0  0  0  0  0  0
   -3.0722    0.9127   -1.5946 C   0  0  2  0  0  0  0  0  0  0  0  0
    0.6100    0.7612   -0.3607 C   0  0  0  0  0  0  0  0  0  0  0  0
   -0.1622   -1.5653   -0.8614 C   0  0  0  0  0  0  0  0  0  0  0  0
    0.9099   -0.5956   -0.5199 C   0  0  0  0  0  0  0  0  0  0  0  0
   -2.4019   -1.2487    0.2836 C   0  0  0  0  0  0  0  0  0  0  0  0
   -3.9218    0.5640   -0.3907 C   0  0  0  0  0  0  0  0  0  0  0  0
   -3.6188   -0.4055    0.4907 C   0  0  0  0  0  0  0  0  0  0  0  0
    1.6372    1.6461    0.0002 C   0  0  0  0  0  0  0  0  0  0  0  0
    2.2221   -1.0561   -0.3489 C   0  0  0  0  0  0  0  0  0  0  0  0
    2.9575    1.2005    0.1772 C   0  0  0  0  0  0  0  0  0  0  0  0
    3.2542   -0.1689   -0.0028 C   0  0  0  0  0  0  0  0  0  0  0  0
    1.3073    3.0970    0.2156 C   0  0  0  0  0  0  0  0  0  0  0  0
   -4.5034   -0.6267    1.6453 C   0  0  0  0  0  0  0  0  0  0  0  0
    4.5751   -0.6137    0.1725 C   0  0  0  0  0  0  0  0  0  0  0  0
    3.9887    2.0869    0.5294 C   0  0  0  0  0  0  0  0  0  0  0  0
    5.5881    0.2802    0.5205 C   0  0  0  0  0  0  0  0  0  0  0  0
    5.2952    1.6286    0.6992 C   0  0  0  0  0  0  0  0  0  0  0  0
   -3.9148   -0.4725    3.0219 C   0  0  0  0  0  0  0  0  0  0  0  0
   -4.7496    2.4982    0.5380 C   0  0  0  0  0  0  0  0  0  0  0  0
    6.9956   -0.1844    0.7089 C   0  0  0  0  0  0  0  0  0  0  0  0
   -1.1375    0.4487   -2.4544 H   0  0  0  0  0  0  0  0  0  0  0  0
   -2.0648   -1.6835   -1.7602 H   0  0  0  0  0  0  0  0  0  0  0  0
   -1.2541    1.3754    0.4677 H   0  0  0  0  0  0  0  0  0  0  0  0
   -0.7808    2.2788   -0.9874 H   0  0  0  0  0  0  0  0  0  0  0  0
   -3.0306    2.0033   -1.7027 H   0  0  0  0  0  0  0  0  0  0  0  0
   -3.1032    0.6259   -3.6240 H   0  0  0  0  0  0  0  0  0  0  0  0
   -4.5788    0.8657   -2.9803 H   0  0  0  0  0  0  0  0  0  0  0  0
    1.5443    3.6766   -0.6822 H   0  0  0  0  0  0  0  0  0  0  0  0
    1.8463    3.5156    1.0715 H   0  0  0  0  0  0  0  0  0  0  0  0
    0.2628    3.2768    0.4832 H   0  0  0  0  0  0  0  0  0  0  0  0
    3.8311    3.1530    0.6600 H   0  0  0  0  0  0  0  0  0  0  0  0
    1.8522   -2.7878   -1.1221 H   0  0  0  0  0  0  0  0  0  0  0  0
    6.0728    2.3394    0.9664 H   0  0  0  0  0  0  0  0  0  0  0  0
   -4.5806    0.1484    3.6278 H   0  0  0  0  0  0  0  0  0  0  0  0
   -2.9395    0.0208    2.9795 H   0  0  0  0  0  0  0  0  0  0  0  0
   -3.8008   -1.4577    3.4806 H   0  0  0  0  0  0  0  0  0  0  0  0
   -5.6745    3.0672    0.6734 H   0  0  0  0  0  0  0  0  0  0  0  0
   -4.0330    3.1488    0.0256 H   0  0  0  0  0  0  0  0  0  0  0  0
   -4.3706    2.2407    1.5328 H   0  0  0  0  0  0  0  0  0  0  0  0
    7.0629   -0.8917    1.5422 H   0  0  0  0  0  0  0  0  0  0  0  0
    7.3793   -0.6475   -0.2065 H   0  0  0  0  0  0  0  0  0  0  0  0
    7.6662    0.6497    0.9448 H   0  0  0  0  0  0  0  0  0  0  0  0
    5.8589   -2.0903    0.2472 H   0  0  0  0  0  0  0  0  0  0  0  0
  1 16  1  0  0  0  0
  1 29  1  0  0  0  0
  2 13  2  0  0  0  0
  3 15  2  0  0  0  0
  4 19  1  0  0  0  0
  4 42  1  0  0  0  0
  5 23  2  0  0  0  0
  6 24  1  0  0  0  0
  6 53  1  0  0  0  0
  7 11  1  0  0  0  0
  7 36  1  0  0  0  0
  7 37  1  0  0  0  0
  8  9  1  0  0  0  0
  8 10  1  0  0  0  0
  8 11  1  0  0  0  0
  8 31  1  6  0  0  0
  9 13  1  0  0  0  0
  9 15  1  0  0  0  0
  9 32  1  6  0  0  0
 10 12  1  0  0  0  0
 10 33  1  0  0  0  0
 10 34  1  0  0  0  0
 11 16  1  0  0  0  0
 11 35  1  6  0  0  0
 12 14  2  0  0  0  0
 12 18  1  0  0  0  0
 13 14  1  0  0  0  0
 14 19  1  0  0  0  0
 15 17  1  0  0  0  0
 16 17  2  0  0  0  0
 17 23  1  0  0  0  0
 18 20  2  0  0  0  0
 18 22  1  0  0  0  0
 19 21  2  0  0  0  0
 20 21  1  0  0  0  0
 20 25  1  0  0  0  0
 21 24  1  0  0  0  0
 22 38  1  0  0  0  0
 22 39  1  0  0  0  0
 22 40  1  0  0  0  0
 23 28  1  0  0  0  0
 24 26  2  0  0  0  0
 25 27  2  0  0  0  0
 25 41  1  0  0  0  0
 26 27  1  0  0  0  0
 26 30  1  0  0  0  0
 27 43  1  0  0  0  0
 28 44  1  0  0  0  0
 28 45  1  0  0  0  0
 28 46  1  0  0  0  0
 29 47  1  0  0  0  0
 29 48  1  0  0  0  0
 29 49  1  0  0  0  0
 30 50  1  0  0  0  0
 30 51  1  0  0  0  0
 30 52  1  0  0  0  0
M  END
