161215786
  -OEChem-04172506393D

 60 61  0     0  0  0  0  0  0999 V2000
    5.3037   -0.6319   -0.7191 O   0  0  0  0  0  0  0  0  0  0  0  0
    3.9741   -1.7345    0.9066 O   0  0  0  0  0  0  0  0  0  0  0  0
   -2.9689    0.0312    2.5021 O   0  0  0  0  0  0  0  0  0  0  0  0
   -3.9959   -2.3454    1.0270 O   0  0  0  0  0  0  0  0  0  0  0  0
    3.3083    1.6816   -0.2321 N   0  3  0  0  0  0  0  0  0  0  0  0
    3.0911    0.2123   -0.1672 C   0  0  0  0  0  0  0  0  0  0  0  0
    2.0655    2.3898   -0.7867 C   0  0  0  0  0  0  0  0  0  0  0  0
    3.6006    2.2493    1.1629 C   0  0  0  0  0  0  0  0  0  0  0  0
    4.4966    2.0148   -1.1436 C   0  0  0  0  0  0  0  0  0  0  0  0
    4.3581   -0.4725    0.3425 C   0  0  0  0  0  0  0  0  0  0  0  0
    0.7815    1.8354   -0.2435 C   0  0  0  0  0  0  0  0  0  0  0  0
    0.3880    2.1356    1.0606 C   0  0  0  0  0  0  0  0  0  0  0  0
   -0.0188    1.0197   -1.0433 C   0  0  0  0  0  0  0  0  0  0  0  0
   -0.8058    1.6200    1.5649 C   0  0  0  0  0  0  0  0  0  0  0  0
   -1.2127    0.5041   -0.5389 C   0  0  0  0  0  0  0  0  0  0  0  0
    6.5068   -1.2650   -0.3054 C   0  0  0  0  0  0  0  0  0  0  0  0
    3.3412   -2.5813   -0.0435 C   0  0  0  0  0  0  0  0  0  0  0  0
   -1.6063    0.8042    0.7652 C   0  0  0  0  0  0  0  0  0  0  0  0
    7.4349   -1.3854   -1.4951 C   0  0  0  0  0  0  0  0  0  0  0  0
    2.9695   -3.8856    0.6289 C   0  0  0  0  0  0  0  0  0  0  0  0
   -2.8514    0.2664    1.2903 C   0  0  0  0  0  0  0  0  0  0  0  0
   -4.0285   -0.0255    0.4177 C   0  0  0  0  0  0  0  0  0  0  0  0
   -4.5475   -1.3168    0.3232 C   0  0  0  0  0  0  0  0  0  0  0  0
   -4.6080    1.0140   -0.3097 C   0  0  0  0  0  0  0  0  0  0  0  0
   -5.6459   -1.5686   -0.4987 C   0  0  0  0  0  0  0  0  0  0  0  0
   -6.2255   -0.5290   -1.2261 C   0  0  0  0  0  0  0  0  0  0  0  0
   -5.7065    0.7623   -1.1316 C   0  0  0  0  0  0  0  0  0  0  0  0
   -7.3979   -0.7991   -2.1074 C   0  0  0  0  0  0  0  0  0  0  0  0
    2.2673    0.0007    0.5224 H   0  0  0  0  0  0  0  0  0  0  0  0
    2.8306   -0.1214   -1.1791 H   0  0  0  0  0  0  0  0  0  0  0  0
    2.1533    3.4664   -0.5946 H   0  0  0  0  0  0  0  0  0  0  0  0
    2.0927    2.2600   -1.8767 H   0  0  0  0  0  0  0  0  0  0  0  0
    2.9753    1.7441    1.9028 H   0  0  0  0  0  0  0  0  0  0  0  0
    3.4117    3.3271    1.1561 H   0  0  0  0  0  0  0  0  0  0  0  0
    4.6556    2.0967    1.4079 H   0  0  0  0  0  0  0  0  0  0  0  0
    4.3718    1.4841   -2.0920 H   0  0  0  0  0  0  0  0  0  0  0  0
    5.4359    1.7551   -0.6502 H   0  0  0  0  0  0  0  0  0  0  0  0
    4.4867    3.0958   -1.3194 H   0  0  0  0  0  0  0  0  0  0  0  0
    4.8397    0.0635    1.1621 H   0  0  0  0  0  0  0  0  0  0  0  0
    0.9737    2.7983    1.6897 H   0  0  0  0  0  0  0  0  0  0  0  0
    0.2770    0.7732   -2.0595 H   0  0  0  0  0  0  0  0  0  0  0  0
   -1.1019    1.8752    2.5792 H   0  0  0  0  0  0  0  0  0  0  0  0
   -1.8079   -0.1400   -1.1804 H   0  0  0  0  0  0  0  0  0  0  0  0
    6.2997   -2.2636    0.0929 H   0  0  0  0  0  0  0  0  0  0  0  0
    6.9861   -0.6654    0.4763 H   0  0  0  0  0  0  0  0  0  0  0  0
    2.4159   -2.1409   -0.4256 H   0  0  0  0  0  0  0  0  0  0  0  0
    4.0107   -2.7880   -0.8850 H   0  0  0  0  0  0  0  0  0  0  0  0
    8.3762   -1.8636   -1.2104 H   0  0  0  0  0  0  0  0  0  0  0  0
    7.6528   -0.3980   -1.9153 H   0  0  0  0  0  0  0  0  0  0  0  0
    6.9661   -1.9735   -2.2911 H   0  0  0  0  0  0  0  0  0  0  0  0
    2.4791   -4.5639   -0.0752 H   0  0  0  0  0  0  0  0  0  0  0  0
    2.2961   -3.7063    1.4736 H   0  0  0  0  0  0  0  0  0  0  0  0
    3.8606   -4.3789    1.0311 H   0  0  0  0  0  0  0  0  0  0  0  0
   -4.2177    2.0263   -0.2432 H   0  0  0  0  0  0  0  0  0  0  0  0
   -6.0451   -2.5775   -0.5703 H   0  0  0  0  0  0  0  0  0  0  0  0
   -6.1482    1.5803   -1.6944 H   0  0  0  0  0  0  0  0  0  0  0  0
   -7.0579   -1.0845   -3.1078 H   0  0  0  0  0  0  0  0  0  0  0  0
   -8.0399    0.0842   -2.1941 H   0  0  0  0  0  0  0  0  0  0  0  0
   -8.0177   -1.6066   -1.7029 H   0  0  0  0  0  0  0  0  0  0  0  0
   -3.2380   -2.0314    1.5462 H   0  0  0  0  0  0  0  0  0  0  0  0
  1 10  1  0  0  0  0
  1 16  1  0  0  0  0
  2 10  1  0  0  0  0
  2 17  1  0  0  0  0
  3 21  2  0  0  0  0
  4 23  1  0  0  0  0
  4 60  1  0  0  0  0
  5  6  1  0  0  0  0
  5  7  1  0  0  0  0
  5  8  1  0  0  0  0
  5  9  1  0  0  0  0
  6 10  1  0  0  0  0
  6 29  1  0  0  0  0
  6 30  1  0  0  0  0
  7 11  1  0  0  0  0
  7 31  1  0  0  0  0
  7 32  1  0  0  0  0
  8 33  1  0  0  0  0
  8 34  1  0  0  0  0
  8 35  1  0  0  0  0
  9 36  1  0  0  0  0
  9 37  1  0  0  0  0
  9 38  1  0  0  0  0
 10 39  1  0  0  0  0
 11 12  2  0  0  0  0
 11 13  1  0  0  0  0
 12 14  1  0  0  0  0
 12 40  1  0  0  0  0
 13 15  2  0  0  0  0
 13 41  1  0  0  0  0
 14 18  2  0  0  0  0
 14 42  1  0  0  0  0
 15 18  1  0  0  0  0
 15 43  1  0  0  0  0
 16 19  1  0  0  0  0
 16 44  1  0  0  0  0
 16 45  1  0  0  0  0
 17 20  1  0  0  0  0
 17 46  1  0  0  0  0
 17 47  1  0  0  0  0
 18 21  1  0  0  0  0
 19 48  1  0  0  0  0
 19 49  1  0  0  0  0
 19 50  1  0  0  0  0
 20 51  1  0  0  0  0
 20 52  1  0  0  0  0
 20 53  1  0  0  0  0
 21 22  1  0  0  0  0
 22 23  2  0  0  0  0
 22 24  1  0  0  0  0
 23 25  1  0  0  0  0
 24 27  2  0  0  0  0
 24 54  1  0  0  0  0
 25 26  2  0  0  0  0
 25 55  1  0  0  0  0
 26 27  1  0  0  0  0
 26 28  1  0  0  0  0
 27 56  1  0  0  0  0
 28 57  1  0  0  0  0
 28 58  1  0  0  0  0
 28 59  1  0  0  0  0
M  CHG  1   5   1
M  END
> <PUBCHEM_COMPOUND_CID>
161215786

> <PUBCHEM_CONFORMER_RMSD>
1

> <PUBCHEM_CONFORMER_DIVERSEORDER>
7
144
150
21
204
48
197
86
146
141
101
130
14
154
10
65
216
135
87
127
78
121
58
133
39
142
100
28
108
122
136
163
80
162
72
71
57
175
114
166
18
92
52
35
50
104
194
61
170
180
129
75
148
187
209
68
29
20
97
185
99
123
74
115
125
25
213
160
184
182
176
211
193
165
64
195
201
159
169
158
181
110
191
24
76
45
157
84
152
145
188
46
172
118
161
90
171
83
134
109
22
12
94
11
15
139
59
218
34
60
221
36
95
17
219
106
196
5
105
88
168
37
38
205
210
153
77
42
164
174
16
120
9
102
41
47
217
112
85
67
23
69
186
143
63
200
107
202
128
73
131
30
81
119
178
96
111
43
27
66
91
208
155
49
138
189
44
206
89
137
198
98
207
132
212
40
51
82
55
149
192
183
167
3
203
19
54
117
33
156
62
124
8
70
93
13
2
179
26
53
32
4
190
151
1
116
147
173
31
79
6
126
220
214
113
140
215
177
56
199
222
103

> <PUBCHEM_MMFF94_PARTIAL_CHARGES>
34
1 -0.56
10 0.56
11 -0.14
12 -0.15
13 -0.15
14 -0.15
15 -0.15
16 0.28
17 0.28
18 0.09
2 -0.56
21 0.4
22 0.09
23 0.08
24 -0.15
25 -0.15
26 -0.14
27 -0.15
28 0.14
3 -0.57
4 -0.53
40 0.15
41 0.15
42 0.15
43 0.15
5 -1.01
54 0.15
55 0.15
56 0.15
6 0.5
60 0.45
7 0.65
8 0.5
9 0.5

> <PUBCHEM_EFFECTIVE_ROTOR_COUNT>
10

> <PUBCHEM_PHARMACOPHORE_FEATURES>
7
1 1 acceptor
1 2 acceptor
1 3 acceptor
1 4 donor
1 5 cation
6 11 12 13 14 15 18 rings
6 22 23 24 25 26 27 rings

> <PUBCHEM_HEAVY_ATOM_COUNT>
28

> <PUBCHEM_ATOM_DEF_STEREO_COUNT>
0

> <PUBCHEM_ATOM_UDEF_STEREO_COUNT>
0

> <PUBCHEM_BOND_DEF_STEREO_COUNT>
0

> <PUBCHEM_BOND_UDEF_STEREO_COUNT>
0

> <PUBCHEM_ISOTOPIC_ATOM_COUNT>
0

> <PUBCHEM_COMPONENT_COUNT>
1

> <PUBCHEM_CACTVS_TAUTO_COUNT>
-1

> <PUBCHEM_CONFORMER_ID>
099BF52A00000007

> <PUBCHEM_MMFF94_ENERGY>
97.8139

> <PUBCHEM_FEATURE_SELFOVERLAP>
35.558

> <PUBCHEM_SHAPE_FINGERPRINT>
10319926 262 15195022504574072136
10369192 42 11674886584574894321
11646440 116 9295283937793356654
117089 54 17842572755803263022
11719270 70 18335977666906655144
11796584 16 18273220785334281701
11973864 48 17895191152704649919
12166972 35 18130786789113353961
12596602 18 17418094308692479936
12895836 83 12973895826840339928
13533116 47 18201716292605078304
13583140 156 18128533962992246257
1361 2 18409163307586377210
13668630 136 18201999919375936487
14068700 675 18342173324566197696
1454969 45 18335145281012200006
14910302 57 18187915210227267997
14931854 50 18114752542748006434
15052358 14 17822006515084281149
15082195 135 17968947525285479084
15183329 4 18186514389584893669
15188451 53 17203609285280090773
15238133 3 10879985862214736362
15250474 111 18412548708124724843
15361156 5 17603596230765538749
17134984 74 18267859656942601823
17349148 13 17203054075116446501
17857418 61 18410855442953625984
18222031 100 17203614821456525361
19315092 285 17775564243243758672
19377110 9 14405188382495576221
19958102 18 18261382361355736237
20028762 73 18273218586818026326
20567600 247 18341603846056459079
20775530 9 17901962837653792682
21033650 10 17095520652345800781
21703447 108 18271796939352083808
21792934 111 12751246948158869351
21987483 16 15840120399238047143
22061861 79 18334571369637796085
22079108 93 11743841382711752373
2215653 11 18040150716972411077
22393880 68 17749386018332583899
23559900 14 18334857272341206185
25269216 80 16153718678081291571
2838139 119 8141792843244939714
3004659 81 18334009497525909160
3633792 109 18410570682585838345
3882209 13 17174588603758085786
392239 28 12247673877225288973
397830 11 10663815330431902021
4015057 19 18335985350313302793
404807 14 17690278210449359443
437795 70 17385720258159726413
439807 62 18198899400815498871
474113 269 17632291255521129605
5283384 97 18411697677524595262
5326457 24 18412538838828091735
5951187 136 12829503510711843454
59682541 52 18261941995441534831
6669772 16 17699272575898345353
8988823 20 18130497638903511008
960060 61 17967253108951581800

> <PUBCHEM_SHAPE_MULTIPOLES>
547.77
18.28
3.16
1.63
3.87
1.68
0.19
10.41
-9.25
-4.09
0.56
1.32
-0.12
-0.37

> <PUBCHEM_SHAPE_SELFOVERLAP>
1133.75

> <PUBCHEM_SHAPE_VOLUME>
314.4

> <PUBCHEM_COORDINATE_TYPE>
2
5
10

$$$$
