35217964
  MJ221101                      

 57 58  0  0  0  0  0  0  0  0999 V2000
   -1.5569    2.9638    0.0000 O   0  0  0  0  0  0  0  0  0  0  0  0
   -0.1279   -0.3362    0.0000 O   0  0  0  0  0  0  0  0  0  0  0  0
    1.4116   -1.5737    0.0000 O   0  0  0  0  0  0  0  0  0  0  0  0
    1.3010   -0.3362    0.0000 O   0  0  0  0  0  0  0  0  0  0  0  0
   -0.8424    1.7263    0.0000 N   0  3  0  0  0  0  0  0  0  0  0  0
   -0.8424    0.9013    0.0000 C   0  0  0  0  0  0  0  0  0  0  0  0
   -1.6674    1.7263    0.0000 C   0  0  0  0  0  0  0  0  0  0  0  0
   -0.0174    1.7263    0.0000 C   0  0  0  0  0  0  0  0  0  0  0  0
   -0.8424    2.5513    0.0000 C   0  0  0  0  0  0  0  0  0  0  0  0
   -0.1279    0.4888    0.0000 C   0  0  0  0  0  0  0  0  0  0  0  0
   -2.0799    2.4407    0.0000 C   0  0  0  0  0  0  0  0  0  0  0  0
    0.3951    2.4407    0.0000 C   0  0  0  0  0  0  0  0  0  0  0  0
    0.5866   -1.5737    0.0000 C   0  0  0  0  0  0  0  0  0  0  0  0
    0.5866   -0.7487    0.0000 C   0  0  0  0  0  0  0  0  0  0  0  0
   -1.5569    3.7888    0.0000 C   0  0  0  0  0  0  0  0  0  0  0  0
    0.5866   -2.3987    0.0000 C   0  0  0  0  0  0  0  0  0  0  0  0
   -0.2384   -1.5737    0.0000 C   0  0  0  0  0  0  0  0  0  0  0  0
    1.3010   -2.8112    0.0000 C   0  0  0  0  0  0  0  0  0  0  0  0
   -0.6509   -2.2881    0.0000 C   0  0  0  0  0  0  0  0  0  0  0  0
   -0.1279   -2.8112    0.0000 C   0  0  0  0  0  0  0  0  0  0  0  0
   -0.6509   -0.8592    0.0000 C   0  0  0  0  0  0  0  0  0  0  0  0
    1.3010   -3.6362    0.0000 C   0  0  0  0  0  0  0  0  0  0  0  0
   -1.4759   -2.2881    0.0000 C   0  0  0  0  0  0  0  0  0  0  0  0
   -0.1279   -3.6362    0.0000 C   0  0  0  0  0  0  0  0  0  0  0  0
   -1.4759   -0.8592    0.0000 C   0  0  0  0  0  0  0  0  0  0  0  0
    0.5866   -4.0487    0.0000 C   0  0  0  0  0  0  0  0  0  0  0  0
   -1.8884   -1.5737    0.0000 C   0  0  0  0  0  0  0  0  0  0  0  0
   -1.6660    0.8533    0.0000 H   0  0  0  0  0  0  0  0  0  0  0  0
   -1.2957    0.2120    0.0000 H   0  0  0  0  0  0  0  0  0  0  0  0
   -2.4641    1.5121    0.0000 H   0  0  0  0  0  0  0  0  0  0  0  0
   -1.2548    2.4407    0.0000 H   0  0  0  0  0  0  0  0  0  0  0  0
    0.0306    0.9027    0.0000 H   0  0  0  0  0  0  0  0  0  0  0  0
    0.6718    1.2730    0.0000 H   0  0  0  0  0  0  0  0  0  0  0  0
   -0.0188    2.5993    0.0000 H   0  0  0  0  0  0  0  0  0  0  0  0
   -0.3890    3.2406    0.0000 H   0  0  0  0  0  0  0  0  0  0  0  0
    0.5311   -0.0075    0.0000 H   0  0  0  0  0  0  0  0  0  0  0  0
    0.6650    0.7166    0.0000 H   0  0  0  0  0  0  0  0  0  0  0  0
   -2.3451    3.2219    0.0000 H   0  0  0  0  0  0  0  0  0  0  0  0
   -2.8978    2.5485    0.0000 H   0  0  0  0  0  0  0  0  0  0  0  0
   -2.5381    1.7548    0.0000 H   0  0  0  0  0  0  0  0  0  0  0  0
    0.9228    1.8066    0.0000 H   0  0  0  0  0  0  0  0  0  0  0  0
    1.1727    2.7165    0.0000 H   0  0  0  0  0  0  0  0  0  0  0  0
    0.4054    3.2657    0.0000 H   0  0  0  0  0  0  0  0  0  0  0  0
   -0.7319    3.7888    0.0000 H   0  0  0  0  0  0  0  0  0  0  0  0
   -1.5569    4.6138    0.0000 H   0  0  0  0  0  0  0  0  0  0  0  0
   -2.3819    3.7888    0.0000 H   0  0  0  0  0  0  0  0  0  0  0  0
    1.8241   -2.2881    0.0000 H   0  0  0  0  0  0  0  0  0  0  0  0
    2.0632   -3.1269    0.0000 H   0  0  0  0  0  0  0  0  0  0  0  0
   -0.9667   -3.0503    0.0000 H   0  0  0  0  0  0  0  0  0  0  0  0
    0.5866   -3.2237    0.0000 H   0  0  0  0  0  0  0  0  0  0  0  0
   -0.9667   -0.0970    0.0000 H   0  0  0  0  0  0  0  0  0  0  0  0
    1.7367   -4.3368    0.0000 H   0  0  0  0  0  0  0  0  0  0  0  0
   -2.1765   -2.7238    0.0000 H   0  0  0  0  0  0  0  0  0  0  0  0
   -0.8424   -4.0487    0.0000 H   0  0  0  0  0  0  0  0  0  0  0  0
   -2.1765   -0.4236    0.0000 H   0  0  0  0  0  0  0  0  0  0  0  0
    0.5866   -4.8737    0.0000 H   0  0  0  0  0  0  0  0  0  0  0  0
   -2.7134   -1.5737    0.0000 H   0  0  0  0  0  0  0  0  0  0  0  0
  1  9  1  0  0  0  0
  1 15  1  0  0  0  0
  2 10  1  0  0  0  0
  2 14  1  0  0  0  0
  3 13  1  0  0  0  0
  3 47  1  0  0  0  0
  4 14  2  0  0  0  0
  5  6  1  0  0  0  0
  5  7  1  0  0  0  0
  5  8  1  0  0  0  0
  5  9  1  0  0  0  0
  6 10  1  0  0  0  0
  6 28  1  0  0  0  0
  6 29  1  0  0  0  0
  7 11  1  0  0  0  0
  7 30  1  0  0  0  0
  7 31  1  0  0  0  0
  8 12  1  0  0  0  0
  8 32  1  0  0  0  0
  8 33  1  0  0  0  0
  9 34  1  0  0  0  0
  9 35  1  0  0  0  0
 10 36  1  0  0  0  0
 10 37  1  0  0  0  0
 11 38  1  0  0  0  0
 11 39  1  0  0  0  0
 11 40  1  0  0  0  0
 12 41  1  0  0  0  0
 12 42  1  0  0  0  0
 12 43  1  0  0  0  0
 13 14  1  0  0  0  0
 13 16  1  0  0  0  0
 13 17  1  0  0  0  0
 15 44  1  0  0  0  0
 15 45  1  0  0  0  0
 15 46  1  0  0  0  0
 16 18  2  3  0  0  0
 16 20  1  0  0  0  0
 17 19  2  3  0  0  0
 17 21  1  0  0  0  0
 18 22  1  0  0  0  0
 18 48  1  0  0  0  0
 19 23  1  0  0  0  0
 19 49  1  0  0  0  0
 20 24  2  3  0  0  0
 20 50  1  0  0  0  0
 21 25  2  0  0  0  0
 21 51  1  0  0  0  0
 22 26  2  0  0  0  0
 22 52  1  0  0  0  0
 23 27  2  0  0  0  0
 23 53  1  0  0  0  0
 24 26  1  0  0  0  0
 24 54  1  0  0  0  0
 25 27  1  0  0  0  0
 25 55  1  0  0  0  0
 26 56  1  0  0  0  0
 27 57  1  0  0  0  0
M  END
