35217964
  Mrv15b2304172506443D          

 57 58  0  0  0  0            999 V2000
    0.7842   -5.2560    5.0875 O   0  0  0  0  0  0  0  0  0  0  0  0
   -0.4614   -2.0139    2.4230 O   0  0  0  0  0  0  0  0  0  0  0  0
   -1.4784    0.4750    2.5746 O   0  0  0  0  0  0  0  0  0  0  0  0
   -0.4553   -1.8135    0.1797 O   0  0  0  0  0  0  0  0  0  0  0  0
    2.2264   -4.2977    3.4939 N   0  3  2  0  0  0  0  0  0  0  0  0
    1.4212   -3.0774    3.4862 C   0  0  1  0  0  0  0  0  0  0  0  0
    3.2780   -4.1813    4.5028 C   0  0  1  0  0  0  0  0  0  0  0  0
    2.8329   -4.4896    2.1776 C   0  0  1  0  0  0  0  0  0  0  0  0
    1.3733   -5.4424    3.8090 C   0  0  2  0  0  0  0  0  0  0  0  0
    0.3206   -3.1991    2.4304 C   0  0  1  0  0  0  0  0  0  0  0  0
    4.1708   -2.9833    4.1731 C   0  0  0  0  0  0  0  0  0  0  0  0
    3.6755   -5.7666    2.1856 C   0  0  0  0  0  0  0  0  0  0  0  0
   -0.7443    0.1751    1.3966 C   0  0  2  0  0  0  0  0  0  0  0  0
   -0.5462   -1.2682    1.3008 C   0  0  0  0  0  0  0  0  0  0  0  0
   -0.0444   -6.3678    5.3935 C   0  0  0  0  0  0  0  0  0  0  0  0
    0.5534    0.8420    1.4488 C   0  0  0  0  0  0  0  0  0  0  0  0
   -1.4854    0.6432    0.2290 C   0  0  0  0  0  0  0  0  0  0  0  0
    0.6901    2.0439    2.1336 C   0  0  0  0  0  0  0  0  0  0  0  0
   -2.7570    0.1463   -0.0321 C   0  0  0  0  0  0  0  0  0  0  0  0
    1.6522    0.2751    0.8138 C   0  0  0  0  0  0  0  0  0  0  0  0
   -0.9193    1.5857   -0.6215 C   0  0  0  0  0  0  0  0  0  0  0  0
    1.9256    2.6788    2.1833 C   0  0  0  0  0  0  0  0  0  0  0  0
   -3.4626    0.5920   -1.1437 C   0  0  0  0  0  0  0  0  0  0  0  0
    2.8877    0.9100    0.8635 C   0  0  0  0  0  0  0  0  0  0  0  0
   -1.6249    2.0314   -1.7331 C   0  0  0  0  0  0  0  0  0  0  0  0
    3.0244    2.1119    1.5483 C   0  0  0  0  0  0  0  0  0  0  0  0
   -2.8965    1.5345   -1.9942 C   0  0  0  0  0  0  0  0  0  0  0  0
    0.9690   -2.9343    4.4676 H   0  0  0  0  0  0  0  0  0  0  0  0
    2.0573   -2.2239    3.2513 H   0  0  0  0  0  0  0  0  0  0  0  0
    2.8258   -4.0382    5.4842 H   0  0  0  0  0  0  0  0  0  0  0  0
    3.8783   -5.0911    4.5085 H   0  0  0  0  0  0  0  0  0  0  0  0
    2.0488   -4.5763    1.4254 H   0  0  0  0  0  0  0  0  0  0  0  0
    3.4689   -3.6361    1.9427 H   0  0  0  0  0  0  0  0  0  0  0  0
    0.5892   -5.5291    3.0568 H   0  0  0  0  0  0  0  0  0  0  0  0
    1.9736   -6.3522    3.8147 H   0  0  0  0  0  0  0  0  0  0  0  0
   -0.3154   -4.0526    2.6653 H   0  0  0  0  0  0  0  0  0  0  0  0
    0.7729   -3.3422    1.4490 H   0  0  0  0  0  0  0  0  0  0  0  0
    4.9549   -2.8966    4.9253 H   0  0  0  0  0  0  0  0  0  0  0  0
    3.5705   -2.0735    4.1674 H   0  0  0  0  0  0  0  0  0  0  0  0
    4.6230   -3.1264    3.1917 H   0  0  0  0  0  0  0  0  0  0  0  0
    4.1277   -5.9097    1.2042 H   0  0  0  0  0  0  0  0  0  0  0  0
    3.0395   -6.6201    2.4205 H   0  0  0  0  0  0  0  0  0  0  0  0
    4.4596   -5.6799    2.9378 H   0  0  0  0  0  0  0  0  0  0  0  0
   -0.4966   -6.2247    6.3749 H   0  0  0  0  0  0  0  0  0  0  0  0
   -0.8285   -6.4546    4.6413 H   0  0  0  0  0  0  0  0  0  0  0  0
    0.5558   -7.2776    5.3992 H   0  0  0  0  0  0  0  0  0  0  0  0
   -0.9809    0.1608    3.3583 H   0  0  0  0  0  0  0  0  0  0  0  0
   -0.1162    2.4599    2.5996 H   0  0  0  0  0  0  0  0  0  0  0  0
   -3.1724   -0.5453    0.5920 H   0  0  0  0  0  0  0  0  0  0  0  0
    1.5519   -0.6069    0.3113 H   0  0  0  0  0  0  0  0  0  0  0  0
    0.0138    1.9503   -0.4299 H   0  0  0  0  0  0  0  0  0  0  0  0
    2.0259    3.5608    2.6858 H   0  0  0  0  0  0  0  0  0  0  0  0
   -4.3957    0.2274   -1.3354 H   0  0  0  0  0  0  0  0  0  0  0  0
    3.6941    0.4940    0.3975 H   0  0  0  0  0  0  0  0  0  0  0  0
   -1.2095    2.7230   -2.3572 H   0  0  0  0  0  0  0  0  0  0  0  0
    3.9310    2.5778    1.5848 H   0  0  0  0  0  0  0  0  0  0  0  0
   -3.4143    1.8615   -2.8099 H   0  0  0  0  0  0  0  0  0  0  0  0
  1  9  1  0  0  0  0
  1 15  1  0  0  0  0
  2 10  1  0  0  0  0
  2 14  1  0  0  0  0
  3 13  1  0  0  0  0
  3 47  1  0  0  0  0
  4 14  2  0  0  0  0
  5  6  1  0  0  0  0
  5  7  1  0  0  0  0
  5  8  1  0  0  0  0
  5  9  1  0  0  0  0
  6 10  1  0  0  0  0
  6 28  1  0  0  0  0
  6 29  1  0  0  0  0
  7 11  1  0  0  0  0
  7 30  1  0  0  0  0
  7 31  1  0  0  0  0
  8 12  1  0  0  0  0
  8 32  1  0  0  0  0
  8 33  1  0  0  0  0
  9 34  1  0  0  0  0
  9 35  1  0  0  0  0
 10 36  1  0  0  0  0
 10 37  1  0  0  0  0
 11 38  1  0  0  0  0
 11 39  1  0  0  0  0
 11 40  1  0  0  0  0
 12 41  1  0  0  0  0
 12 42  1  0  0  0  0
 12 43  1  0  0  0  0
 13 14  1  0  0  0  0
 13 16  1  0  0  0  0
 13 17  1  0  0  0  0
 15 44  1  0  0  0  0
 15 45  1  0  0  0  0
 15 46  1  0  0  0  0
 16 18  2  0  0  0  0
 16 20  1  0  0  0  0
 17 19  2  0  0  0  0
 17 21  1  0  0  0  0
 18 22  1  0  0  0  0
 18 48  1  0  0  0  0
 19 23  1  0  0  0  0
 19 49  1  0  0  0  0
 20 24  2  0  0  0  0
 20 50  1  0  0  0  0
 21 25  2  0  0  0  0
 21 51  1  0  0  0  0
 22 26  2  0  0  0  0
 22 52  1  0  0  0  0
 23 27  2  0  0  0  0
 23 53  1  0  0  0  0
 24 26  1  0  0  0  0
 24 54  1  0  0  0  0
 25 27  1  0  0  0  0
 25 55  1  0  0  0  0
 26 56  1  0  0  0  0
 27 57  1  0  0  0  0
M  CHG  1   5   1
M  END
