@<TRIPOS>MOLECULE
lig
 57 58 0 0 0
SMALL
GASTEIGER

@<TRIPOS>ATOM
      1 O           0.7842   -5.2560    5.0875 O.3     1  UNL11      -0.3434
      2 O          -0.4614   -2.0139    2.4230 O.3     1  UNL11      -0.4568
      3 O          -1.4784    0.4750    2.5746 O.3     1  UNL11      -0.3698
      4 O          -0.4553   -1.8135    0.1797 O.2     1  UNL11      -0.2468
      5 N           2.2264   -4.2977    3.4939 N.4     1  UNL11       0.2648
      6 C           1.4212   -3.0774    3.4862 C.3     1  UNL11       0.0073
      7 C           3.2780   -4.1813    4.5028 C.3     1  UNL11      -0.0305
      8 C           2.8329   -4.4896    2.1776 C.3     1  UNL11      -0.0305
      9 C           1.3733   -5.4424    3.8090 C.3     1  UNL11       0.0763
     10 C           0.3206   -3.1991    2.4304 C.3     1  UNL11       0.1323
     11 C           4.1708   -2.9833    4.1731 C.3     1  UNL11      -0.0243
     12 C           3.6755   -5.7666    2.1856 C.3     1  UNL11      -0.0243
     13 C          -0.7443    0.1751    1.3966 C.3     1  UNL11       0.2133
     14 C          -0.5462   -1.2682    1.3008 C.2     1  UNL11       0.3487
     15 C          -0.0444   -6.3678    5.3935 C.3     1  UNL11       0.0418
     16 C           0.5534    0.8420    1.4488 C.3     1  UNL11      -0.0008
     17 C          -1.4854    0.6432    0.2290 C.3     1  UNL11      -0.0008
     18 C           0.6901    2.0439    2.1336 C.3     1  UNL11      -0.0550
     19 C          -2.7570    0.1463   -0.0321 C.3     1  UNL11      -0.0550
     20 C           1.6522    0.2751    0.8138 C.3     1  UNL11      -0.0550
     21 C          -0.9193    1.5857   -0.6215 C.3     1  UNL11      -0.0550
     22 C           1.9256    2.6788    2.1833 C.3     1  UNL11      -0.0614
     23 C          -3.4626    0.5920   -1.1437 C.3     1  UNL11      -0.0614
     24 C           2.8877    0.9100    0.8635 C.3     1  UNL11      -0.0614
     25 C          -1.6249    2.0314   -1.7331 C.3     1  UNL11      -0.0614
     26 C           3.0244    2.1119    1.5483 C.3     1  UNL11      -0.0617
     27 C          -2.8965    1.5345   -1.9942 C.3     1  UNL11      -0.0617
     28 H           0.9690   -2.9343    4.4676 H       1  UNL11       0.0850
     29 H           2.0573   -2.2239    3.2513 H       1  UNL11       0.0850
     30 H           2.8258   -4.0382    5.4842 H       1  UNL11       0.0813
     31 H           3.8783   -5.0911    4.5085 H       1  UNL11       0.0813
     32 H           2.0488   -4.5763    1.4254 H       1  UNL11       0.0813
     33 H           3.4689   -3.6361    1.9427 H       1  UNL11       0.0813
     34 H           0.5892   -5.5291    3.0568 H       1  UNL11       0.1149
     35 H           1.9736   -6.3522    3.8147 H       1  UNL11       0.1149
     36 H          -0.3154   -4.0526    2.6653 H       1  UNL11       0.0752
     37 H           0.7729   -3.3422    1.4490 H       1  UNL11       0.0752
     38 H           4.9549   -2.8966    4.9253 H       1  UNL11       0.0281
     39 H           3.5705   -2.0735    4.1674 H       1  UNL11       0.0281
     40 H           4.6230   -3.1264    3.1917 H       1  UNL11       0.0281
     41 H           4.1277   -5.9097    1.2042 H       1  UNL11       0.0281
     42 H           3.0395   -6.6201    2.4205 H       1  UNL11       0.0281
     43 H           4.4596   -5.6799    2.9378 H       1  UNL11       0.0281
     44 H          -0.4966   -6.2247    6.3749 H       1  UNL11       0.0525
     45 H          -0.8285   -6.4546    4.6413 H       1  UNL11       0.0525
     46 H           0.5558   -7.2776    5.3992 H       1  UNL11       0.0525
     47 H          -0.9809    0.1608    3.3583 H       1  UNL11       0.2117
     48 H          -0.1162    2.4599    2.5996 H       1  UNL11       0.0621
     49 H          -3.1724   -0.5453    0.5920 H       1  UNL11       0.0621
     50 H           1.5519   -0.6069    0.3113 H       1  UNL11       0.0621
     51 H           0.0138    1.9503   -0.4299 H       1  UNL11       0.0621
     52 H           2.0259    3.5608    2.6858 H       1  UNL11       0.0618
     53 H          -4.3957    0.2274   -1.3354 H       1  UNL11       0.0618
     54 H           3.6941    0.4940    0.3975 H       1  UNL11       0.0618
     55 H          -1.2095    2.7230   -2.3572 H       1  UNL11       0.0618
     56 H           3.9310    2.5778    1.5848 H       1  UNL11       0.0618
     57 H          -3.4143    1.8615   -2.8099 H       1  UNL11       0.0618
@<TRIPOS>UNITY_ATOM_ATTR
5 1
charge 1
@<TRIPOS>BOND
     1     1     9    1
     2     1    15    1
     3     2    10    1
     4     2    14    1
     5     3    13    1
     6     3    47    1
     7     4    14    2
     8     5     6    1
     9     5     7    1
    10     5     8    1
    11     5     9    1
    12     6    10    1
    13     6    28    1
    14     6    29    1
    15     7    11    1
    16     7    30    1
    17     7    31    1
    18     8    12    1
    19     8    32    1
    20     8    33    1
    21     9    34    1
    22     9    35    1
    23    10    36    1
    24    10    37    1
    25    11    38    1
    26    11    39    1
    27    11    40    1
    28    12    41    1
    29    12    42    1
    30    12    43    1
    31    13    14    1
    32    13    16    1
    33    13    17    1
    34    15    44    1
    35    15    45    1
    36    15    46    1
    37    16    18   ar
    38    16    20   ar
    39    17    19   ar
    40    17    21   ar
    41    18    22   ar
    42    18    48    1
    43    19    23   ar
    44    19    49    1
    45    20    24   ar
    46    20    50    1
    47    21    25   ar
    48    21    51    1
    49    22    26   ar
    50    22    52    1
    51    23    27   ar
    52    23    53    1
    53    24    26   ar
    54    24    54    1
    55    25    27   ar
    56    25    55    1
    57    26    56    1
    58    27    57    1
