lig
 OpenBabel04172506443D

 57 58  0  0  0  0  0  0  0  0999 V2000
   -3.7163    0.8990    1.8833 O   0  0  0  0  0  0  0  0  0  0  0  0
   -0.5285   -0.2369   -0.5704 O   0  0  0  0  0  0  0  0  0  0  0  0
    1.6907   -0.5294   -2.0268 O   0  0  0  0  0  0  0  0  0  0  0  0
    0.5295   -1.8699    0.6551 O   0  0  0  0  0  0  0  0  0  0  0  0
   -4.2408   -0.3806   -0.2163 N   0  3  0  0  0  0  0  0  0  0  0  0
   -2.8971    0.1193   -0.7273 C   0  0  0  0  0  0  0  0  0  0  0  0
   -4.4437   -1.8264   -0.6462 C   0  0  0  0  0  0  0  0  0  0  0  0
   -5.3537    0.4795   -0.8027 C   0  0  0  0  0  0  0  0  0  0  0  0
   -4.2803   -0.2854    1.3181 C   0  0  0  0  0  0  0  0  0  0  0  0
   -1.7885   -0.7215   -0.1253 C   0  0  0  0  0  0  0  0  0  0  0  0
   -5.7842   -2.3132   -0.1407 C   0  0  0  0  0  0  0  0  0  0  0  0
   -5.3128    0.3859   -2.3123 C   0  0  0  0  0  0  0  0  0  0  0  0
    1.8636   -0.2623   -0.6200 C   0  0  0  0  0  0  0  0  0  0  0  0
    0.5757   -0.9074   -0.1017 C   0  0  0  0  0  0  0  0  0  0  0  0
   -3.8058    0.8953    3.3014 C   0  0  0  0  0  0  0  0  0  0  0  0
    3.1431   -0.9281   -0.1080 C   0  0  0  0  0  0  0  0  0  0  0  0
    1.9033    1.2492   -0.3846 C   0  0  0  0  0  0  0  0  0  0  0  0
    3.4902   -0.8272    1.2392 C   0  0  0  0  0  0  0  0  0  0  0  0
    2.4353    2.0929   -1.3597 C   0  0  0  0  0  0  0  0  0  0  0  0
    3.9618   -1.6355   -0.9881 C   0  0  0  0  0  0  0  0  0  0  0  0
    1.4076    1.7833    0.8047 C   0  0  0  0  0  0  0  0  0  0  0  0
    4.6564   -1.4338    1.7063 C   0  0  0  0  0  0  0  0  0  0  0  0
    2.4717    3.4709   -1.1455 C   0  0  0  0  0  0  0  0  0  0  0  0
    5.1277   -2.2421   -0.5212 C   0  0  0  0  0  0  0  0  0  0  0  0
    1.4439    3.1611    1.0190 C   0  0  0  0  0  0  0  0  0  0  0  0
    5.4751   -2.1413    0.8260 C   0  0  0  0  0  0  0  0  0  0  0  0
    1.9759    4.0049    0.0439 C   0  0  0  0  0  0  0  0  0  0  0  0
   -2.8461    0.0095   -1.8140 H   0  0  0  0  0  0  0  0  0  0  0  0
   -2.7889    1.1819   -0.4813 H   0  0  0  0  0  0  0  0  0  0  0  0
   -4.3159   -1.9338   -1.7260 H   0  0  0  0  0  0  0  0  0  0  0  0
   -3.6856   -2.4462   -0.1594 H   0  0  0  0  0  0  0  0  0  0  0  0
   -6.3210    0.1854   -0.3872 H   0  0  0  0  0  0  0  0  0  0  0  0
   -5.1640    1.5119   -0.4846 H   0  0  0  0  0  0  0  0  0  0  0  0
   -3.7660   -1.1649    1.7242 H   0  0  0  0  0  0  0  0  0  0  0  0
   -5.3337   -0.3292    1.6174 H   0  0  0  0  0  0  0  0  0  0  0  0
   -1.7848   -0.6829    0.9673 H   0  0  0  0  0  0  0  0  0  0  0  0
   -1.8474   -1.7635   -0.4494 H   0  0  0  0  0  0  0  0  0  0  0  0
   -5.9096   -2.2466    0.9423 H   0  0  0  0  0  0  0  0  0  0  0  0
   -6.6351   -1.8380   -0.6349 H   0  0  0  0  0  0  0  0  0  0  0  0
   -5.8716   -3.3804   -0.3807 H   0  0  0  0  0  0  0  0  0  0  0  0
   -6.1324    1.0023   -2.7043 H   0  0  0  0  0  0  0  0  0  0  0  0
   -4.4112    0.8039   -2.7647 H   0  0  0  0  0  0  0  0  0  0  0  0
   -5.4965   -0.6138   -2.7104 H   0  0  0  0  0  0  0  0  0  0  0  0
   -3.3600    1.8204    3.6766 H   0  0  0  0  0  0  0  0  0  0  0  0
   -3.2531    0.0477    3.7179 H   0  0  0  0  0  0  0  0  0  0  0  0
   -4.8519    0.8573    3.6201 H   0  0  0  0  0  0  0  0  0  0  0  0
    1.0031    0.0646   -2.3749 H   0  0  0  0  0  0  0  0  0  0  0  0
    2.8640   -0.3011    1.9521 H   0  0  0  0  0  0  0  0  0  0  0  0
    2.8393    1.7003   -2.2887 H   0  0  0  0  0  0  0  0  0  0  0  0
    3.7261   -1.7351   -2.0433 H   0  0  0  0  0  0  0  0  0  0  0  0
    0.9865    1.1503    1.5807 H   0  0  0  0  0  0  0  0  0  0  0  0
    4.9246   -1.3593    2.7561 H   0  0  0  0  0  0  0  0  0  0  0  0
    2.8886    4.1277   -1.9032 H   0  0  0  0  0  0  0  0  0  0  0  0
    5.7656   -2.7932   -1.2061 H   0  0  0  0  0  0  0  0  0  0  0  0
    1.0577    3.5771    1.9449 H   0  0  0  0  0  0  0  0  0  0  0  0
    6.3825   -2.6145    1.1898 H   0  0  0  0  0  0  0  0  0  0  0  0
    2.0047    5.0776    0.2112 H   0  0  0  0  0  0  0  0  0  0  0  0
  1  9  1  0  0  0  0
  1 15  1  0  0  0  0
  2 10  1  0  0  0  0
  2 14  1  0  0  0  0
  3 13  1  0  0  0  0
  3 47  1  0  0  0  0
  4 14  2  0  0  0  0
  5  6  1  0  0  0  0
  5  7  1  0  0  0  0
  5  8  1  0  0  0  0
  5  9  1  0  0  0  0
  6 10  1  0  0  0  0
  6 28  1  0  0  0  0
  6 29  1  0  0  0  0
  7 11  1  0  0  0  0
  7 30  1  0  0  0  0
  7 31  1  0  0  0  0
  8 12  1  0  0  0  0
  8 32  1  0  0  0  0
  8 33  1  0  0  0  0
  9 34  1  0  0  0  0
  9 35  1  0  0  0  0
 10 36  1  0  0  0  0
 10 37  1  0  0  0  0
 11 38  1  0  0  0  0
 11 39  1  0  0  0  0
 11 40  1  0  0  0  0
 12 41  1  0  0  0  0
 12 42  1  0  0  0  0
 12 43  1  0  0  0  0
 13 14  1  0  0  0  0
 13 16  1  0  0  0  0
 13 17  1  0  0  0  0
 15 44  1  0  0  0  0
 15 45  1  0  0  0  0
 15 46  1  0  0  0  0
 16 18  2  0  0  0  0
 16 20  1  0  0  0  0
 17 19  2  0  0  0  0
 17 21  1  0  0  0  0
 18 22  1  0  0  0  0
 18 48  1  0  0  0  0
 19 23  1  0  0  0  0
 19 49  1  0  0  0  0
 20 24  2  0  0  0  0
 20 50  1  0  0  0  0
 21 25  2  0  0  0  0
 21 51  1  0  0  0  0
 22 26  2  0  0  0  0
 22 52  1  0  0  0  0
 23 27  2  0  0  0  0
 23 53  1  0  0  0  0
 24 26  1  0  0  0  0
 24 54  1  0  0  0  0
 25 27  1  0  0  0  0
 25 55  1  0  0  0  0
 26 56  1  0  0  0  0
 27 57  1  0  0  0  0
M  CHG  1   5   1
M  END
