@<TRIPOS>MOLECULE
lig
 66 69 0 0 0
SMALL
GASTEIGER

@<TRIPOS>ATOM
      1 S          -0.7153    0.7568   -0.6706 S.3     1  UNL11      -0.1135
      2 O           2.4769    4.4059   -3.2329 O.3     1  UNL11      -0.3911
      3 O           2.2235    2.3381   -1.4225 O.2     1  UNL11      -0.2961
      4 O           2.8153   -3.1691    1.9018 O.2     1  UNL11      -0.4914
      5 O           0.7671   -2.1429    3.4171 O.2     1  UNL11      -0.4914
      6 N          -0.6545    8.2665   -2.2489 N.4     1  UNL11       0.2444
      7 C           0.4281    5.7366   -3.5059 C.3     1  UNL11      -0.0050
      8 C          -1.5892    7.3991   -3.0487 C.3     1  UNL11      -0.0297
      9 C           0.8088    7.9427   -2.1475 C.3     1  UNL11      -0.0297
     10 C          -1.1081    5.9165   -3.1865 C.3     1  UNL11      -0.0071
     11 C           1.3175    7.0179   -3.2978 C.3     1  UNL11      -0.0071
     12 C          -0.8180    9.6617   -2.6539 C.3     1  UNL11      -0.0044
     13 C           1.1451    4.5780   -2.7351 C.3     1  UNL11       0.0651
     14 C          -1.1168    8.2023   -0.8634 C.3     1  UNL11      -0.0410
     15 C           0.4492    3.2217   -2.8788 C.3     1  UNL11       0.0333
     16 C          -0.5099    9.7954   -4.0747 C.3     1  UNL11      -0.0028
     17 C           1.1637    2.1452   -2.0567 C.2     1  UNL11       0.1492
     18 C           0.4324    0.8170   -2.1035 C.3     1  UNL11       0.0721
     19 C          -0.5959   11.0385   -4.6906 C.3     1  UNL11      -0.0535
     20 C          -0.1308    8.6795   -4.8116 C.3     1  UNL11      -0.0535
     21 C           1.5065   -0.2546   -1.8389 C.3     1  UNL11      -0.0075
     22 C           1.3580   -0.7914   -0.4820 C.3     1  UNL11      -0.0288
     23 C          -0.3026   11.1658   -6.0433 C.3     1  UNL11      -0.0613
     24 C           0.1625    8.8067   -6.1644 C.3     1  UNL11      -0.0613
     25 C           0.2586   -0.3290    0.2872 C.3     1  UNL11       0.0155
     26 C           0.0766   10.0499   -6.7802 C.3     1  UNL11      -0.0617
     27 C           2.2544   -1.7631    0.0446 C.3     1  UNL11      -0.0120
     28 C           0.0192   -0.7324    1.6299 C.3     1  UNL11      -0.0026
     29 C           2.0108   -2.2237    1.3713 C.3     1  UNL11       0.1618
     30 C           0.9311   -1.7039    2.1511 C.3     1  UNL11       0.1625
     31 C           2.2911   -4.4557    1.6082 C.3     1  UNL11       0.0790
     32 C           1.5031   -1.3140    4.3046 C.3     1  UNL11       0.0790
     33 H           0.4544    5.5187   -4.5689 H       1  UNL11       0.0329
     34 H          -2.5804    7.4189   -2.5956 H       1  UNL11       0.0815
     35 H          -1.6015    7.8117   -4.0575 H       1  UNL11       0.0815
     36 H           1.0108    7.4710   -1.1859 H       1  UNL11       0.0815
     37 H           1.3919    8.8634   -2.1266 H       1  UNL11       0.0815
     38 H          -1.6996    5.4121   -3.9505 H       1  UNL11       0.0320
     39 H          -1.2625    5.4626   -2.2076 H       1  UNL11       0.0320
     40 H           1.3610    7.5850   -4.2276 H       1  UNL11       0.0320
     41 H           2.3505    6.7255   -3.1091 H       1  UNL11       0.0320
     42 H          -1.8467    9.9741   -2.4742 H       1  UNL11       0.0868
     43 H          -0.1411   10.2899   -2.0747 H       1  UNL11       0.0868
     44 H           1.1944    4.8294   -1.6681 H       1  UNL11       0.0600
     45 H          -0.4711    8.8168   -0.2361 H       1  UNL11       0.0778
     46 H          -2.1402    8.5729   -0.8043 H       1  UNL11       0.0778
     47 H          -1.0838    7.1694   -0.5169 H       1  UNL11       0.0778
     48 H          -0.5850    3.3069   -2.5454 H       1  UNL11       0.0367
     49 H           0.3788    2.9014   -3.9183 H       1  UNL11       0.0367
     50 H           2.4430    4.1846   -4.1870 H       1  UNL11       0.2098
     51 H          -0.0517    0.5979   -3.0579 H       1  UNL11       0.0497
     52 H          -0.8741   11.8574   -4.1498 H       1  UNL11       0.0622
     53 H          -0.0677    7.7672   -4.3597 H       1  UNL11       0.0622
     54 H           1.3999   -1.0624   -2.5629 H       1  UNL11       0.0328
     55 H           2.5188    0.1120   -2.0091 H       1  UNL11       0.0328
     56 H          -0.3657   12.0780   -6.4952 H       1  UNL11       0.0618
     57 H           0.4407    7.9878   -6.7051 H       1  UNL11       0.0618
     58 H           0.2918   10.1432   -7.7729 H       1  UNL11       0.0618
     59 H           3.0386   -2.1152   -0.5044 H       1  UNL11       0.0658
     60 H          -0.7499   -0.3550    2.1835 H       1  UNL11       0.0666
     61 H           2.9406   -5.2191    2.0366 H       1  UNL11       0.0660
     62 H           1.2923   -4.5472    2.0350 H       1  UNL11       0.0660
     63 H           2.2380   -4.5885    0.5276 H       1  UNL11       0.0660
     64 H           1.3708   -1.6685    5.3268 H       1  UNL11       0.0660
     65 H           1.1432   -0.2881    4.2263 H       1  UNL11       0.0660
     66 H           2.5604   -1.3492    4.0419 H       1  UNL11       0.0660
@<TRIPOS>UNITY_ATOM_ATTR
6 1
charge 1
@<TRIPOS>BOND
     1     1    18    1
     2     1    25    1
     3    13     2    1
     4     2    50    1
     5     3    17    2
     6     4    29    1
     7     4    31    1
     8     5    30    1
     9     5    32    1
    10     6     8    1
    11     6     9    1
    12     6    12    1
    13     6    14    1
    14     7    10    1
    15     7    11    1
    16     7    13    1
    17     7    33    1
    18     8    10    1
    19     8    34    1
    20     8    35    1
    21     9    11    1
    22     9    36    1
    23     9    37    1
    24    10    38    1
    25    10    39    1
    26    11    40    1
    27    11    41    1
    28    12    16    1
    29    12    42    1
    30    12    43    1
    31    13    15    1
    32    13    44    1
    33    14    45    1
    34    14    46    1
    35    14    47    1
    36    15    17    1
    37    15    48    1
    38    15    49    1
    39    16    19   ar
    40    16    20   ar
    41    18    17    1
    42    18    21    1
    43    18    51    1
    44    19    23   ar
    45    19    52    1
    46    20    24   ar
    47    20    53    1
    48    21    22    1
    49    21    54    1
    50    21    55    1
    51    22    25   ar
    52    22    27   ar
    53    23    26   ar
    54    23    56    1
    55    24    26   ar
    56    24    57    1
    57    25    28   ar
    58    26    58    1
    59    27    29   ar
    60    27    59    1
    61    28    30   ar
    62    28    60    1
    63    29    30   ar
    64    31    61    1
    65    31    62    1
    66    31    63    1
    67    32    64    1
    68    32    65    1
    69    32    66    1
