44396917
  Mrv15b2304172506123D          

 66 69  0  0  1  0            999 V2000
   -0.7153    0.7568   -0.6706 S   0  0  0  0  0  0  0  0  0  0  0  0
    2.4769    4.4059   -3.2329 O   0  0  0  0  0  0  0  0  0  0  0  0
    2.2235    2.3381   -1.4225 O   0  0  0  0  0  0  0  0  0  0  0  0
    2.8153   -3.1691    1.9018 O   0  0  0  0  0  0  0  0  0  0  0  0
    0.7671   -2.1429    3.4171 O   0  0  0  0  0  0  0  0  0  0  0  0
   -0.6545    8.2665   -2.2489 N   0  3  1  0  0  0  0  0  0  0  0  0
    0.4281    5.7366   -3.5059 C   0  0  1  0  0  0  0  0  0  0  0  0
   -1.5892    7.3991   -3.0487 C   0  0  1  0  0  0  0  0  0  0  0  0
    0.8088    7.9427   -2.1475 C   0  0  2  0  0  0  0  0  0  0  0  0
   -1.1081    5.9165   -3.1865 C   0  0  1  0  0  0  0  0  0  0  0  0
    1.3175    7.0179   -3.2978 C   0  0  2  0  0  0  0  0  0  0  0  0
   -0.8180    9.6617   -2.6539 C   0  0  1  0  0  0  0  0  0  0  0  0
    1.1451    4.5780   -2.7351 C   0  0  1  0  0  0  0  0  0  0  0  0
   -1.1168    8.2023   -0.8634 C   0  0  0  0  0  0  0  0  0  0  0  0
    0.4492    3.2217   -2.8788 C   0  0  1  0  0  0  0  0  0  0  0  0
   -0.5099    9.7954   -4.0747 C   0  0  0  0  0  0  0  0  0  0  0  0
    1.1637    2.1452   -2.0567 C   0  0  0  0  0  0  0  0  0  0  0  0
    0.4324    0.8170   -2.1035 C   0  0  1  0  0  0  0  0  0  0  0  0
   -0.5959   11.0385   -4.6906 C   0  0  0  0  0  0  0  0  0  0  0  0
   -0.1308    8.6795   -4.8116 C   0  0  0  0  0  0  0  0  0  0  0  0
    1.5065   -0.2546   -1.8389 C   0  0  1  0  0  0  0  0  0  0  0  0
    1.3580   -0.7914   -0.4820 C   0  0  0  0  0  0  0  0  0  0  0  0
   -0.3026   11.1658   -6.0433 C   0  0  0  0  0  0  0  0  0  0  0  0
    0.1625    8.8067   -6.1644 C   0  0  0  0  0  0  0  0  0  0  0  0
    0.2586   -0.3290    0.2872 C   0  0  0  0  0  0  0  0  0  0  0  0
    0.0766   10.0499   -6.7802 C   0  0  0  0  0  0  0  0  0  0  0  0
    2.2544   -1.7631    0.0446 C   0  0  0  0  0  0  0  0  0  0  0  0
    0.0192   -0.7324    1.6299 C   0  0  0  0  0  0  0  0  0  0  0  0
    2.0108   -2.2237    1.3713 C   0  0  0  0  0  0  0  0  0  0  0  0
    0.9311   -1.7039    2.1511 C   0  0  0  0  0  0  0  0  0  0  0  0
    2.2911   -4.4557    1.6082 C   0  0  0  0  0  0  0  0  0  0  0  0
    1.5031   -1.3140    4.3046 C   0  0  0  0  0  0  0  0  0  0  0  0
    0.4544    5.5187   -4.5689 H   0  0  0  0  0  0  0  0  0  0  0  0
   -2.5804    7.4189   -2.5956 H   0  0  0  0  0  0  0  0  0  0  0  0
   -1.6015    7.8117   -4.0575 H   0  0  0  0  0  0  0  0  0  0  0  0
    1.0108    7.4710   -1.1859 H   0  0  0  0  0  0  0  0  0  0  0  0
    1.3919    8.8634   -2.1266 H   0  0  0  0  0  0  0  0  0  0  0  0
   -1.6996    5.4121   -3.9505 H   0  0  0  0  0  0  0  0  0  0  0  0
   -1.2625    5.4626   -2.2076 H   0  0  0  0  0  0  0  0  0  0  0  0
    1.3610    7.5850   -4.2276 H   0  0  0  0  0  0  0  0  0  0  0  0
    2.3505    6.7255   -3.1091 H   0  0  0  0  0  0  0  0  0  0  0  0
   -1.8467    9.9741   -2.4742 H   0  0  0  0  0  0  0  0  0  0  0  0
   -0.1411   10.2899   -2.0747 H   0  0  0  0  0  0  0  0  0  0  0  0
    1.1944    4.8294   -1.6681 H   0  0  0  0  0  0  0  0  0  0  0  0
   -0.4711    8.8168   -0.2361 H   0  0  0  0  0  0  0  0  0  0  0  0
   -2.1402    8.5729   -0.8043 H   0  0  0  0  0  0  0  0  0  0  0  0
   -1.0838    7.1694   -0.5169 H   0  0  0  0  0  0  0  0  0  0  0  0
   -0.5850    3.3069   -2.5454 H   0  0  0  0  0  0  0  0  0  0  0  0
    0.3788    2.9014   -3.9183 H   0  0  0  0  0  0  0  0  0  0  0  0
    2.4430    4.1846   -4.1870 H   0  0  0  0  0  0  0  0  0  0  0  0
   -0.0517    0.5979   -3.0579 H   0  0  0  0  0  0  0  0  0  0  0  0
   -0.8741   11.8574   -4.1498 H   0  0  0  0  0  0  0  0  0  0  0  0
   -0.0677    7.7672   -4.3597 H   0  0  0  0  0  0  0  0  0  0  0  0
    1.3999   -1.0624   -2.5629 H   0  0  0  0  0  0  0  0  0  0  0  0
    2.5188    0.1120   -2.0091 H   0  0  0  0  0  0  0  0  0  0  0  0
   -0.3657   12.0780   -6.4952 H   0  0  0  0  0  0  0  0  0  0  0  0
    0.4407    7.9878   -6.7051 H   0  0  0  0  0  0  0  0  0  0  0  0
    0.2918   10.1432   -7.7729 H   0  0  0  0  0  0  0  0  0  0  0  0
    3.0386   -2.1152   -0.5044 H   0  0  0  0  0  0  0  0  0  0  0  0
   -0.7499   -0.3550    2.1835 H   0  0  0  0  0  0  0  0  0  0  0  0
    2.9406   -5.2191    2.0366 H   0  0  0  0  0  0  0  0  0  0  0  0
    1.2923   -4.5472    2.0350 H   0  0  0  0  0  0  0  0  0  0  0  0
    2.2380   -4.5885    0.5276 H   0  0  0  0  0  0  0  0  0  0  0  0
    1.3708   -1.6685    5.3268 H   0  0  0  0  0  0  0  0  0  0  0  0
    1.1432   -0.2881    4.2263 H   0  0  0  0  0  0  0  0  0  0  0  0
    2.5604   -1.3492    4.0419 H   0  0  0  0  0  0  0  0  0  0  0  0
  1 18  1  0  0  0  0
  1 25  1  0  0  0  0
 13  2  1  0  0  0  0
  2 50  1  0  0  0  0
  3 17  2  0  0  0  0
  4 29  1  0  0  0  0
  4 31  1  0  0  0  0
  5 30  1  0  0  0  0
  5 32  1  0  0  0  0
  6  8  1  0  0  0  0
  6  9  1  0  0  0  0
  6 12  1  0  0  0  0
  6 14  1  0  0  0  0
  7 10  1  0  0  0  0
  7 11  1  0  0  0  0
  7 13  1  0  0  0  0
  7 33  1  0  0  0  0
  8 10  1  0  0  0  0
  8 34  1  0  0  0  0
  8 35  1  0  0  0  0
  9 11  1  0  0  0  0
  9 36  1  0  0  0  0
  9 37  1  0  0  0  0
 10 38  1  0  0  0  0
 10 39  1  0  0  0  0
 11 40  1  0  0  0  0
 11 41  1  0  0  0  0
 12 16  1  0  0  0  0
 12 42  1  0  0  0  0
 12 43  1  0  0  0  0
 13 15  1  0  0  0  0
 13 44  1  0  0  0  0
 14 45  1  0  0  0  0
 14 46  1  0  0  0  0
 14 47  1  0  0  0  0
 15 17  1  0  0  0  0
 15 48  1  0  0  0  0
 15 49  1  0  0  0  0
 16 19  2  0  0  0  0
 16 20  1  0  0  0  0
 18 17  1  0  0  0  0
 18 21  1  0  0  0  0
 18 51  1  0  0  0  0
 19 23  1  0  0  0  0
 19 52  1  0  0  0  0
 20 24  2  0  0  0  0
 20 53  1  0  0  0  0
 21 22  1  0  0  0  0
 21 54  1  0  0  0  0
 21 55  1  0  0  0  0
 22 25  1  0  0  0  0
 22 27  2  0  0  0  0
 23 26  2  0  0  0  0
 23 56  1  0  0  0  0
 24 26  1  0  0  0  0
 24 57  1  0  0  0  0
 25 28  2  0  0  0  0
 26 58  1  0  0  0  0
 27 29  1  0  0  0  0
 27 59  1  0  0  0  0
 28 30  1  0  0  0  0
 28 60  1  0  0  0  0
 29 30  2  0  0  0  0
 31 61  1  0  0  0  0
 31 62  1  0  0  0  0
 31 63  1  0  0  0  0
 32 64  1  0  0  0  0
 32 65  1  0  0  0  0
 32 66  1  0  0  0  0
M  CHG  1   6   1
M  END
