44396917
  -OEChem-04172506113D

 66 69  0     1  0  0  0  0  0999 V2000
    2.5868   -0.6657   -1.7283 S   0  0  0  0  0  0  0  0  0  0  0  0
   -0.3614    3.6628    0.4873 O   0  0  0  0  0  0  0  0  0  0  0  0
    2.1761    1.7902    0.5338 O   0  0  0  0  0  0  0  0  0  0  0  0
    7.7587   -0.5294    1.0927 O   0  0  0  0  0  0  0  0  0  0  0  0
    6.4353   -2.9636    0.9205 O   0  0  0  0  0  0  0  0  0  0  0  0
   -4.7001    0.8935    0.6418 N   0  3  0  0  0  0  0  0  0  0  0  0
   -2.0582    2.0646   -0.0589 C   0  0  0  0  0  0  0  0  0  0  0  0
   -3.8484    0.3293   -0.4993 C   0  0  0  0  0  0  0  0  0  0  0  0
   -4.3968    2.3792    0.8589 C   0  0  0  0  0  0  0  0  0  0  0  0
   -2.3615    0.5802   -0.2768 C   0  0  0  0  0  0  0  0  0  0  0  0
   -2.9098    2.6296    1.0805 C   0  0  0  0  0  0  0  0  0  0  0  0
   -6.1761    0.7623    0.2435 C   0  0  0  0  0  0  0  0  0  0  0  0
   -0.5714    2.2791    0.2177 C   0  0  1  0  0  0  0  0  0  0  0  0
   -4.5052    0.0928    1.9291 C   0  0  0  0  0  0  0  0  0  0  0  0
    0.2818    1.8499   -0.9744 C   0  0  0  0  0  0  0  0  0  0  0  0
   -6.5946   -0.6573   -0.0031 C   0  0  0  0  0  0  0  0  0  0  0  0
    1.7384    1.6165   -0.6025 C   0  0  0  0  0  0  0  0  0  0  0  0
    2.6333    1.1530   -1.7095 C   0  0  1  0  0  0  0  0  0  0  0  0
   -6.4849   -1.2044   -1.2815 C   0  0  0  0  0  0  0  0  0  0  0  0
   -7.0932   -1.4298    1.0457 C   0  0  0  0  0  0  0  0  0  0  0  0
    4.0899    1.5747   -1.4709 C   0  0  0  0  0  0  0  0  0  0  0  0
    4.7781    0.4396   -0.7659 C   0  0  0  0  0  0  0  0  0  0  0  0
   -6.8739   -2.5241   -1.5111 C   0  0  0  0  0  0  0  0  0  0  0  0
   -7.4822   -2.7495    0.8162 C   0  0  0  0  0  0  0  0  0  0  0  0
    4.1205   -0.7899   -0.8546 C   0  0  0  0  0  0  0  0  0  0  0  0
   -7.3726   -3.2967   -0.4622 C   0  0  0  0  0  0  0  0  0  0  0  0
    6.0054    0.5319   -0.1189 C   0  0  0  0  0  0  0  0  0  0  0  0
    4.6646   -1.9377   -0.2953 C   0  0  0  0  0  0  0  0  0  0  0  0
    6.5582   -0.6161    0.4521 C   0  0  0  0  0  0  0  0  0  0  0  0
    5.8912   -1.8444    0.3641 C   0  0  0  0  0  0  0  0  0  0  0  0
    8.3753    0.7553    1.1400 C   0  0  0  0  0  0  0  0  0  0  0  0
    5.6964   -4.1760    0.7892 C   0  0  0  0  0  0  0  0  0  0  0  0
   -2.3279    2.6174   -0.9703 H   0  0  0  0  0  0  0  0  0  0  0  0
   -4.0090   -0.7507   -0.5606 H   0  0  0  0  0  0  0  0  0  0  0  0
   -4.1774    0.8116   -1.4273 H   0  0  0  0  0  0  0  0  0  0  0  0
   -4.7406    2.9142   -0.0347 H   0  0  0  0  0  0  0  0  0  0  0  0
   -4.9859    2.7160    1.7194 H   0  0  0  0  0  0  0  0  0  0  0  0
   -2.0024   -0.0106    0.5746 H   0  0  0  0  0  0  0  0  0  0  0  0
   -1.8557    0.1876   -1.1624 H   0  0  0  0  0  0  0  0  0  0  0  0
   -2.7645    3.7141    1.1575 H   0  0  0  0  0  0  0  0  0  0  0  0
   -2.5874    2.2152    2.0423 H   0  0  0  0  0  0  0  0  0  0  0  0
   -6.3333    1.3721   -0.6559 H   0  0  0  0  0  0  0  0  0  0  0  0
   -6.7767    1.2135    1.0442 H   0  0  0  0  0  0  0  0  0  0  0  0
   -0.2880    1.7246    1.1210 H   0  0  0  0  0  0  0  0  0  0  0  0
   -5.2559    0.4087    2.6595 H   0  0  0  0  0  0  0  0  0  0  0  0
   -4.5664   -0.9765    1.7141 H   0  0  0  0  0  0  0  0  0  0  0  0
   -3.5097    0.2962    2.3290 H   0  0  0  0  0  0  0  0  0  0  0  0
    0.2647    2.6303   -1.7444 H   0  0  0  0  0  0  0  0  0  0  0  0
   -0.0527    0.9145   -1.4217 H   0  0  0  0  0  0  0  0  0  0  0  0
    0.5836    3.7843    0.6813 H   0  0  0  0  0  0  0  0  0  0  0  0
    2.2739    1.5700   -2.6558 H   0  0  0  0  0  0  0  0  0  0  0  0
   -6.1117   -0.6131   -2.1132 H   0  0  0  0  0  0  0  0  0  0  0  0
   -7.1993   -1.0161    2.0447 H   0  0  0  0  0  0  0  0  0  0  0  0
    4.1670    2.5046   -0.8964 H   0  0  0  0  0  0  0  0  0  0  0  0
    4.5915    1.7322   -2.4341 H   0  0  0  0  0  0  0  0  0  0  0  0
   -6.7915   -2.9492   -2.5071 H   0  0  0  0  0  0  0  0  0  0  0  0
   -7.8736   -3.3501    1.6320 H   0  0  0  0  0  0  0  0  0  0  0  0
   -7.6767   -4.3238   -0.6412 H   0  0  0  0  0  0  0  0  0  0  0  0
    6.4744    1.5089   -0.0979 H   0  0  0  0  0  0  0  0  0  0  0  0
    4.1002   -2.8570   -0.3999 H   0  0  0  0  0  0  0  0  0  0  0  0
    9.3157    0.6411    1.6894 H   0  0  0  0  0  0  0  0  0  0  0  0
    7.7673    1.4753    1.6986 H   0  0  0  0  0  0  0  0  0  0  0  0
    8.6348    1.1158    0.1388 H   0  0  0  0  0  0  0  0  0  0  0  0
    6.2738   -4.9607    1.2893 H   0  0  0  0  0  0  0  0  0  0  0  0
    5.5957   -4.4764   -0.2594 H   0  0  0  0  0  0  0  0  0  0  0  0
    4.7301   -4.1181    1.3018 H   0  0  0  0  0  0  0  0  0  0  0  0
  1 18  1  0  0  0  0
  1 25  1  0  0  0  0
  2 13  1  0  0  0  0
  2 50  1  0  0  0  0
  3 17  2  0  0  0  0
  4 29  1  0  0  0  0
  4 31  1  0  0  0  0
  5 30  1  0  0  0  0
  5 32  1  0  0  0  0
  6  8  1  0  0  0  0
  6  9  1  0  0  0  0
  6 12  1  0  0  0  0
  6 14  1  0  0  0  0
  7 10  1  0  0  0  0
  7 11  1  0  0  0  0
  7 13  1  0  0  0  0
  7 33  1  0  0  0  0
  8 10  1  0  0  0  0
  8 34  1  0  0  0  0
  8 35  1  0  0  0  0
  9 11  1  0  0  0  0
  9 36  1  0  0  0  0
  9 37  1  0  0  0  0
 10 38  1  0  0  0  0
 10 39  1  0  0  0  0
 11 40  1  0  0  0  0
 11 41  1  0  0  0  0
 12 16  1  0  0  0  0
 12 42  1  0  0  0  0
 12 43  1  0  0  0  0
 13 15  1  0  0  0  0
 13 44  1  0  0  0  0
 14 45  1  0  0  0  0
 14 46  1  0  0  0  0
 14 47  1  0  0  0  0
 15 17  1  0  0  0  0
 15 48  1  0  0  0  0
 15 49  1  0  0  0  0
 16 19  2  0  0  0  0
 16 20  1  0  0  0  0
 17 18  1  0  0  0  0
 18 21  1  0  0  0  0
 18 51  1  0  0  0  0
 19 23  1  0  0  0  0
 19 52  1  0  0  0  0
 20 24  2  0  0  0  0
 20 53  1  0  0  0  0
 21 22  1  0  0  0  0
 21 54  1  0  0  0  0
 21 55  1  0  0  0  0
 22 25  1  0  0  0  0
 22 27  2  0  0  0  0
 23 26  2  0  0  0  0
 23 56  1  0  0  0  0
 24 26  1  0  0  0  0
 24 57  1  0  0  0  0
 25 28  2  0  0  0  0
 26 58  1  0  0  0  0
 27 29  1  0  0  0  0
 27 59  1  0  0  0  0
 28 30  1  0  0  0  0
 28 60  1  0  0  0  0
 29 30  2  0  0  0  0
 31 61  1  0  0  0  0
 31 62  1  0  0  0  0
 31 63  1  0  0  0  0
 32 64  1  0  0  0  0
 32 65  1  0  0  0  0
 32 66  1  0  0  0  0
M  CHG  1   6   1
M  END
> <PUBCHEM_COMPOUND_CID>
44396917

> <PUBCHEM_CONFORMER_RMSD>
1.4

> <PUBCHEM_CONFORMER_DIVERSEORDER>
4
98
86
50
85
136
16
119
71
44
106
15
76
152
56
5
116
141
104
28
148
36
21
114
143
78
94
34
6
105
46
10
138
150
57
8
61
83
33
121
70
66
20
26
77
151
90
63
125
51
112
2
47
153
27
79
58
67
7
97
154
62
108
142
52
122
13
54
113
35
43
140
129
127
68
1
147
156
137
11
23
69
73
93
65
103
96
17
135
117
139
130
41
131
126
87
31
102
80
123
42
24
59
32
118
91
133
60
88
146
92
45
74
155
95
101
99
115
144
84
64
82
22
19
110
145
89
40
100
55
39
75
128
29
81
37
72
111
18
48
107
109
12
120
49
14
149
38
134
53
30
132
25
124
9
3

> <PUBCHEM_MMFF94_PARTIAL_CHARGES>
37
1 -0.33
12 0.65
13 0.28
14 0.5
15 0.06
16 -0.14
17 0.45
18 0.29
19 -0.15
2 -0.68
20 -0.15
21 0.14
22 -0.14
23 -0.15
24 -0.15
25 0.1
26 -0.15
27 -0.15
28 -0.15
29 0.08
3 -0.57
30 0.08
31 0.28
32 0.28
4 -0.36
5 -0.36
50 0.4
52 0.15
53 0.15
56 0.15
57 0.15
58 0.15
59 0.15
6 -1.01
60 0.15
8 0.5
9 0.5

> <PUBCHEM_EFFECTIVE_ROTOR_COUNT>
9.8

> <PUBCHEM_PHARMACOPHORE_FEATURES>
10
1 2 acceptor
1 2 donor
1 3 acceptor
1 4 acceptor
1 5 acceptor
1 6 cation
5 1 18 21 22 25 rings
6 16 19 20 23 24 26 rings
6 22 25 27 28 29 30 rings
6 6 7 8 9 10 11 rings

> <PUBCHEM_HEAVY_ATOM_COUNT>
32

> <PUBCHEM_ATOM_DEF_STEREO_COUNT>
0

> <PUBCHEM_ATOM_UDEF_STEREO_COUNT>
2

> <PUBCHEM_BOND_DEF_STEREO_COUNT>
0

> <PUBCHEM_BOND_UDEF_STEREO_COUNT>
0

> <PUBCHEM_ISOTOPIC_ATOM_COUNT>
0

> <PUBCHEM_COMPONENT_COUNT>
1

> <PUBCHEM_CACTVS_TAUTO_COUNT>
3

> <PUBCHEM_CONFORMER_ID>
02A5717500000004

> <PUBCHEM_MMFF94_ENERGY>
110.2498

> <PUBCHEM_FEATURE_SELFOVERLAP>
50.809

> <PUBCHEM_SHAPE_FINGERPRINT>
10 15 17203324499126597324
10258705 36 17696760957230920302
10571361 74 18410011035425812231
10883706 17 17968945330503923339
10920273 25 10953730059629040671
10939801 23 18201437047296344380
11103572 95 18267583499003138375
11410812 94 16515950498175022188
11809386 21 18412550895139135289
11963148 33 17696185190740061293
11973863 73 18337121103486493793
1200032 147 10519995863011375021
12013929 27 17896041113119451199
12342043 65 16269706004654761428
1361 4 18338518543435977298
13782708 43 18259987093753018397
13944108 23 8790622393983629516
14211702 104 18341061748111361247
14294032 229 16773787142977368990
14394314 77 18341052917448110705
14664723 55 8574714607168051699
15064981 113 13767925689421723690
15145343 16 10375588264993255875
15326921 28 17484261664834533569
15728490 51 18343298189280075998
16992727 255 8286195063552794318
16993427 108 18413666920398816721
1768 124 18335420141439062058
190975 80 18342173380305729232
19303781 99 18266455585363516767
19841028 212 18188767250171625002
19958102 18 17458348558893328843
20028762 73 18337676317423878702
20105231 36 18201442412571035502
2026 5 17822006476050482714
21130935 74 18340769218189497874
21197605 99 18411138014086688910
21585483 132 18113610153908080666
21987483 16 17984978456568296547
22149856 69 17417269665923004185
22864921 47 18343297063719557119
23389318 12 17822016441212924612
23522609 53 18050604882410429661
25025965 108 17316752176375512850
2747138 104 17346608460480085344
3383291 50 18410295852203551451
3504750 166 18192998106111131957
3525247 18 11668741363008045251
3663271 9 18272370815881082208
3711267 37 11167936987476356962
393628 194 8934734296990648975
3986486 107 9223227495164957912
4058900 60 8935009170164691845
406291 66 18408040693187233878
4173938 188 18271801355294907986
4258327 124 8862944949576898225
437795 163 18410857676584663206
439807 62 18408326605708368327
4461854 278 17632582698869658110
44880568 143 16370719353458176781
45377200 153 17775016712645137718
474113 269 18340761564599890455
4756088 132 17106208798758684538
50009960 94 18342729758985685279
5104073 3 18127414454323956728
5718773 13 18408885148592872533
5874358 3 17749937895955398378
59682541 35 17988920098553693112
9555976 147 18059024873714999169
96874 4 18410291424044302751
9689198 14 11743840287225813284

> <PUBCHEM_SHAPE_MULTIPOLES>
633.94
26.9
4.1
1.5
1.57
2.09
-0.18
23.23
5.74
1.19
0.82
0.09
0.12
-2.84

> <PUBCHEM_SHAPE_SELFOVERLAP>
1331.025

> <PUBCHEM_SHAPE_VOLUME>
360.5

> <PUBCHEM_COORDINATE_TYPE>
2
5
10

$$$$
