lig
 OpenBabel04172506123D

 66 69  0  0  1  0  0  0  0  0999 V2000
    2.5868   -0.6657   -1.7283 S   0  0  0  0  0  0  0  0  0  0  0  0
   -0.3614    3.6628    0.4873 O   0  0  0  0  0  0  0  0  0  0  0  0
    2.1761    1.7902    0.5338 O   0  0  0  0  0  0  0  0  0  0  0  0
    7.7587   -0.5294    1.0927 O   0  0  0  0  0  0  0  0  0  0  0  0
    6.4353   -2.9636    0.9205 O   0  0  0  0  0  0  0  0  0  0  0  0
   -4.7001    0.8935    0.6418 N   0  3  1  0  0  0  0  0  0  0  0  0
   -2.0582    2.0646   -0.0589 C   0  0  1  0  0  0  0  0  0  0  0  0
   -3.8484    0.3293   -0.4993 C   0  0  0  0  0  0  0  0  0  0  0  0
   -4.3968    2.3792    0.8589 C   0  0  0  0  0  0  0  0  0  0  0  0
   -2.3615    0.5802   -0.2768 C   0  0  0  0  0  0  0  0  0  0  0  0
   -2.9098    2.6296    1.0805 C   0  0  0  0  0  0  0  0  0  0  0  0
   -6.1761    0.7623    0.2435 C   0  0  0  0  0  0  0  0  0  0  0  0
   -0.5714    2.2791    0.2177 C   0  0  1  0  0  0  0  0  0  0  0  0
   -4.5052    0.0928    1.9291 C   0  0  0  0  0  0  0  0  0  0  0  0
    0.2818    1.8499   -0.9744 C   0  0  0  0  0  0  0  0  0  0  0  0
   -6.5946   -0.6573   -0.0031 C   0  0  0  0  0  0  0  0  0  0  0  0
    1.7384    1.6165   -0.6025 C   0  0  0  0  0  0  0  0  0  0  0  0
    2.6333    1.1530   -1.7095 C   0  0  1  0  0  0  0  0  0  0  0  0
   -6.4849   -1.2044   -1.2815 C   0  0  0  0  0  0  0  0  0  0  0  0
   -7.0932   -1.4298    1.0457 C   0  0  0  0  0  0  0  0  0  0  0  0
    4.0899    1.5747   -1.4709 C   0  0  0  0  0  0  0  0  0  0  0  0
    4.7781    0.4396   -0.7659 C   0  0  0  0  0  0  0  0  0  0  0  0
   -6.8739   -2.5241   -1.5111 C   0  0  0  0  0  0  0  0  0  0  0  0
   -7.4822   -2.7495    0.8162 C   0  0  0  0  0  0  0  0  0  0  0  0
    4.1205   -0.7899   -0.8546 C   0  0  0  0  0  0  0  0  0  0  0  0
   -7.3726   -3.2967   -0.4622 C   0  0  0  0  0  0  0  0  0  0  0  0
    6.0054    0.5319   -0.1189 C   0  0  0  0  0  0  0  0  0  0  0  0
    4.6646   -1.9377   -0.2953 C   0  0  0  0  0  0  0  0  0  0  0  0
    6.5582   -0.6161    0.4521 C   0  0  0  0  0  0  0  0  0  0  0  0
    5.8912   -1.8444    0.3641 C   0  0  0  0  0  0  0  0  0  0  0  0
    8.3753    0.7553    1.1400 C   0  0  0  0  0  0  0  0  0  0  0  0
    5.6964   -4.1760    0.7892 C   0  0  0  0  0  0  0  0  0  0  0  0
   -2.3279    2.6174   -0.9703 H   0  0  0  0  0  0  0  0  0  0  0  0
   -4.0090   -0.7507   -0.5606 H   0  0  0  0  0  0  0  0  0  0  0  0
   -4.1774    0.8116   -1.4273 H   0  0  0  0  0  0  0  0  0  0  0  0
   -4.7406    2.9142   -0.0347 H   0  0  0  0  0  0  0  0  0  0  0  0
   -4.9859    2.7160    1.7194 H   0  0  0  0  0  0  0  0  0  0  0  0
   -2.0024   -0.0106    0.5746 H   0  0  0  0  0  0  0  0  0  0  0  0
   -1.8557    0.1876   -1.1624 H   0  0  0  0  0  0  0  0  0  0  0  0
   -2.7645    3.7141    1.1575 H   0  0  0  0  0  0  0  0  0  0  0  0
   -2.5874    2.2152    2.0423 H   0  0  0  0  0  0  0  0  0  0  0  0
   -6.3333    1.3721   -0.6559 H   0  0  0  0  0  0  0  0  0  0  0  0
   -6.7767    1.2135    1.0442 H   0  0  0  0  0  0  0  0  0  0  0  0
   -0.2880    1.7246    1.1210 H   0  0  0  0  0  0  0  0  0  0  0  0
   -5.2559    0.4087    2.6595 H   0  0  0  0  0  0  0  0  0  0  0  0
   -4.5664   -0.9765    1.7141 H   0  0  0  0  0  0  0  0  0  0  0  0
   -3.5097    0.2962    2.3290 H   0  0  0  0  0  0  0  0  0  0  0  0
    0.2647    2.6303   -1.7444 H   0  0  0  0  0  0  0  0  0  0  0  0
   -0.0527    0.9145   -1.4217 H   0  0  0  0  0  0  0  0  0  0  0  0
    0.5836    3.7843    0.6813 H   0  0  0  0  0  0  0  0  0  0  0  0
    2.2739    1.5700   -2.6558 H   0  0  0  0  0  0  0  0  0  0  0  0
   -6.1117   -0.6131   -2.1132 H   0  0  0  0  0  0  0  0  0  0  0  0
   -7.1993   -1.0161    2.0447 H   0  0  0  0  0  0  0  0  0  0  0  0
    4.1670    2.5046   -0.8964 H   0  0  0  0  0  0  0  0  0  0  0  0
    4.5915    1.7322   -2.4341 H   0  0  0  0  0  0  0  0  0  0  0  0
   -6.7915   -2.9492   -2.5071 H   0  0  0  0  0  0  0  0  0  0  0  0
   -7.8736   -3.3501    1.6320 H   0  0  0  0  0  0  0  0  0  0  0  0
   -7.6767   -4.3238   -0.6412 H   0  0  0  0  0  0  0  0  0  0  0  0
    6.4744    1.5089   -0.0979 H   0  0  0  0  0  0  0  0  0  0  0  0
    4.1002   -2.8570   -0.3999 H   0  0  0  0  0  0  0  0  0  0  0  0
    9.3157    0.6411    1.6894 H   0  0  0  0  0  0  0  0  0  0  0  0
    7.7673    1.4753    1.6986 H   0  0  0  0  0  0  0  0  0  0  0  0
    8.6348    1.1158    0.1388 H   0  0  0  0  0  0  0  0  0  0  0  0
    6.2738   -4.9607    1.2893 H   0  0  0  0  0  0  0  0  0  0  0  0
    5.5957   -4.4764   -0.2594 H   0  0  0  0  0  0  0  0  0  0  0  0
    4.7301   -4.1181    1.3018 H   0  0  0  0  0  0  0  0  0  0  0  0
  1 18  1  0  0  0  0
  1 25  1  0  0  0  0
  2 13  1  0  0  0  0
  2 50  1  0  0  0  0
  3 17  2  0  0  0  0
  4 29  1  0  0  0  0
  4 31  1  0  0  0  0
  5 30  1  0  0  0  0
  5 32  1  0  0  0  0
  6  8  1  0  0  0  0
  6  9  1  0  0  0  0
  6 12  1  6  0  0  0
  6 14  1  0  0  0  0
  7 10  1  0  0  0  0
  7 11  1  0  0  0  0
  7 13  1  0  0  0  0
  7 33  1  6  0  0  0
  8 10  1  0  0  0  0
  8 34  1  0  0  0  0
  8 35  1  0  0  0  0
  9 11  1  0  0  0  0
  9 36  1  0  0  0  0
  9 37  1  0  0  0  0
 10 38  1  0  0  0  0
 10 39  1  0  0  0  0
 11 40  1  0  0  0  0
 11 41  1  0  0  0  0
 12 16  1  0  0  0  0
 12 42  1  0  0  0  0
 12 43  1  0  0  0  0
 13 15  1  0  0  0  0
 13 44  1  1  0  0  0
 14 45  1  0  0  0  0
 14 46  1  0  0  0  0
 14 47  1  0  0  0  0
 15 17  1  0  0  0  0
 15 48  1  0  0  0  0
 15 49  1  0  0  0  0
 16 19  2  0  0  0  0
 16 20  1  0  0  0  0
 17 18  1  0  0  0  0
 18 21  1  0  0  0  0
 18 51  1  6  0  0  0
 19 23  1  0  0  0  0
 19 52  1  0  0  0  0
 20 24  2  0  0  0  0
 20 53  1  0  0  0  0
 21 22  1  0  0  0  0
 21 54  1  0  0  0  0
 21 55  1  0  0  0  0
 22 25  1  0  0  0  0
 22 27  2  0  0  0  0
 23 26  2  0  0  0  0
 23 56  1  0  0  0  0
 24 26  1  0  0  0  0
 24 57  1  0  0  0  0
 25 28  2  0  0  0  0
 26 58  1  0  0  0  0
 27 29  1  0  0  0  0
 27 59  1  0  0  0  0
 28 30  1  0  0  0  0
 28 60  1  0  0  0  0
 29 30  2  0  0  0  0
 31 61  1  0  0  0  0
 31 62  1  0  0  0  0
 31 63  1  0  0  0  0
 32 64  1  0  0  0  0
 32 65  1  0  0  0  0
 32 66  1  0  0  0  0
M  CHG  1   6   1
M  END
