44396917
  Mrv15b2304172506122D          

 66 69  0  0  1  0            999 V2000
    1.0426   -0.8526    0.0000 S   0  0  0  0  0  0  0  0  0  0  0  0
   -1.9173   -1.5200    0.0000 O   0  0  0  0  0  0  0  0  0  0  0  0
   -0.6798   -2.2345    0.0000 O   0  0  0  0  0  0  0  0  0  0  0  0
    3.9707   -2.3450    0.0000 O   0  0  0  0  0  0  0  0  0  0  0  0
    3.9707   -0.6950    0.0000 O   0  0  0  0  0  0  0  0  0  0  0  0
   -2.7423    1.3378    0.0000 N   0  3  1  0  0  0  0  0  0  0  0  0
   -1.9173   -0.0911    0.0000 C   0  0  1  0  0  0  0  0  0  0  0  0
   -1.9173    1.3378    0.0000 C   0  0  0  0  0  0  0  0  0  0  0  0
   -3.1548    0.6234    0.0000 C   0  0  0  0  0  0  0  0  0  0  0  0
   -1.5048    0.6234    0.0000 C   0  0  0  0  0  0  0  0  0  0  0  0
   -2.7423   -0.0911    0.0000 C   0  0  0  0  0  0  0  0  0  0  0  0
   -2.7711    2.1623    0.0000 C   0  0  0  0  0  0  0  0  0  0  0  0
   -1.5048   -0.8056    0.0000 C   0  0  1  0  0  0  0  0  0  0  0  0
   -3.4419    1.7750    0.0000 C   0  0  0  0  0  0  0  0  0  0  0  0
   -0.6798   -0.8056    0.0000 C   0  0  0  0  0  0  0  0  0  0  0  0
   -2.0714    2.5995    0.0000 C   0  0  0  0  0  0  0  0  0  0  0  0
   -0.2673   -1.5200    0.0000 C   0  0  0  0  0  0  0  0  0  0  0  0
    0.5577   -1.5200    0.0000 C   0  0  1  0  0  0  0  0  0  0  0  0
   -2.1002    3.4240    0.0000 C   0  0  0  0  0  0  0  0  0  0  0  0
   -1.3430    2.2122    0.0000 C   0  0  0  0  0  0  0  0  0  0  0  0
    1.0426   -2.1875    0.0000 C   0  0  0  0  0  0  0  0  0  0  0  0
    1.8273   -1.9325    0.0000 C   0  0  0  0  0  0  0  0  0  0  0  0
   -1.4006    3.8612    0.0000 C   0  0  0  0  0  0  0  0  0  0  0  0
   -0.6434    2.6494    0.0000 C   0  0  0  0  0  0  0  0  0  0  0  0
    1.8273   -1.1075    0.0000 C   0  0  0  0  0  0  0  0  0  0  0  0
   -0.6722    3.4739    0.0000 C   0  0  0  0  0  0  0  0  0  0  0  0
    2.5417   -2.3450    0.0000 C   0  0  0  0  0  0  0  0  0  0  0  0
    2.5417   -0.6950    0.0000 C   0  0  0  0  0  0  0  0  0  0  0  0
    3.2562   -1.9325    0.0000 C   0  0  0  0  0  0  0  0  0  0  0  0
    3.2562   -1.1075    0.0000 C   0  0  0  0  0  0  0  0  0  0  0  0
    3.9707   -3.1700    0.0000 C   0  0  0  0  0  0  0  0  0  0  0  0
    4.6851   -1.1075    0.0000 C   0  0  0  0  0  0  0  0  0  0  0  0
   -2.3298   -0.8056    0.0000 H   0  0  0  0  0  0  0  0  0  0  0  0
   -1.2280    1.7912    0.0000 H   0  0  0  0  0  0  0  0  0  0  0  0
   -1.8693    2.1614    0.0000 H   0  0  0  0  0  0  0  0  0  0  0  0
   -3.8920    0.9936    0.0000 H   0  0  0  0  0  0  0  0  0  0  0  0
   -3.8920    0.2531    0.0000 H   0  0  0  0  0  0  0  0  0  0  0  0
   -0.7675    0.2531    0.0000 H   0  0  0  0  0  0  0  0  0  0  0  0
   -0.7675    0.9936    0.0000 H   0  0  0  0  0  0  0  0  0  0  0  0
   -3.5548   -0.2344    0.0000 H   0  0  0  0  0  0  0  0  0  0  0  0
   -3.2726   -0.7231    0.0000 H   0  0  0  0  0  0  0  0  0  0  0  0
   -2.7903    2.9871    0.0000 H   0  0  0  0  0  0  0  0  0  0  0  0
   -3.4903    2.5665    0.0000 H   0  0  0  0  0  0  0  0  0  0  0  0
   -1.0923   -1.5200    0.0000 H   0  0  0  0  0  0  0  0  0  0  0  0
   -4.0951    2.2790    0.0000 H   0  0  0  0  0  0  0  0  0  0  0  0
   -4.2512    1.6147    0.0000 H   0  0  0  0  0  0  0  0  0  0  0  0
   -3.2420    0.9746    0.0000 H   0  0  0  0  0  0  0  0  0  0  0  0
    0.0095   -0.3522    0.0000 H   0  0  0  0  0  0  0  0  0  0  0  0
   -0.6318    0.0180    0.0000 H   0  0  0  0  0  0  0  0  0  0  0  0
   -2.7423   -1.5200    0.0000 H   0  0  0  0  0  0  0  0  0  0  0  0
    0.1832   -0.7850    0.0000 H   0  0  0  0  0  0  0  0  0  0  0  0
   -2.5395    4.1224    0.0000 H   0  0  0  0  0  0  0  0  0  0  0  0
   -1.3718    3.0367    0.0000 H   0  0  0  0  0  0  0  0  0  0  0  0
    0.4492   -2.7606    0.0000 H   0  0  0  0  0  0  0  0  0  0  0  0
    1.1859   -3.0000    0.0000 H   0  0  0  0  0  0  0  0  0  0  0  0
   -1.4294    4.6857    0.0000 H   0  0  0  0  0  0  0  0  0  0  0  0
    0.0851    2.2621    0.0000 H   0  0  0  0  0  0  0  0  0  0  0  0
    0.0275    3.9111    0.0000 H   0  0  0  0  0  0  0  0  0  0  0  0
    2.5417   -3.1700    0.0000 H   0  0  0  0  0  0  0  0  0  0  0  0
    2.5417    0.1300    0.0000 H   0  0  0  0  0  0  0  0  0  0  0  0
    3.1457   -3.1700    0.0000 H   0  0  0  0  0  0  0  0  0  0  0  0
    3.9707   -3.9950    0.0000 H   0  0  0  0  0  0  0  0  0  0  0  0
    4.7957   -3.1700    0.0000 H   0  0  0  0  0  0  0  0  0  0  0  0
    4.2726   -1.8220    0.0000 H   0  0  0  0  0  0  0  0  0  0  0  0
    5.3996   -1.5200    0.0000 H   0  0  0  0  0  0  0  0  0  0  0  0
    5.0976   -0.3931    0.0000 H   0  0  0  0  0  0  0  0  0  0  0  0
  1 18  1  0  0  0  0
  1 25  1  0  0  0  0
 13  2  1  1  0  0  0
  2 50  1  0  0  0  0
  3 17  2  0  0  0  0
  4 29  1  0  0  0  0
  4 31  1  0  0  0  0
  5 30  1  0  0  0  0
  5 32  1  0  0  0  0
  6  8  1  0  0  0  0
  6  9  1  0  0  0  0
  6 12  1  1  0  0  0
  6 14  1  6  0  0  0
  7 10  1  0  0  0  0
  7 11  1  0  0  0  0
  7 13  1  6  0  0  0
  7 33  1  1  0  0  0
  8 10  1  0  0  0  0
  8 34  1  0  0  0  0
  8 35  1  0  0  0  0
  9 11  1  0  0  0  0
  9 36  1  0  0  0  0
  9 37  1  0  0  0  0
 10 38  1  0  0  0  0
 10 39  1  0  0  0  0
 11 40  1  0  0  0  0
 11 41  1  0  0  0  0
 12 16  1  0  0  0  0
 12 42  1  0  0  0  0
 12 43  1  0  0  0  0
 13 15  1  0  0  0  0
 13 44  1  6  0  0  0
 14 45  1  0  0  0  0
 14 46  1  0  0  0  0
 14 47  1  0  0  0  0
 15 17  1  0  0  0  0
 15 48  1  0  0  0  0
 15 49  1  0  0  0  0
 16 19  2  0  0  0  0
 16 20  1  0  0  0  0
 18 17  1  6  0  0  0
 18 21  1  0  0  0  0
 18 51  1  1  0  0  0
 19 23  1  0  0  0  0
 19 52  1  0  0  0  0
 20 24  2  3  0  0  0
 20 53  1  0  0  0  0
 21 22  1  0  0  0  0
 21 54  1  0  0  0  0
 21 55  1  0  0  0  0
 22 25  1  0  0  0  0
 22 27  2  0  0  0  0
 23 26  2  0  0  0  0
 23 56  1  0  0  0  0
 24 26  1  0  0  0  0
 24 57  1  0  0  0  0
 25 28  2  0  0  0  0
 26 58  1  0  0  0  0
 27 29  1  0  0  0  0
 27 59  1  0  0  0  0
 28 30  1  0  0  0  0
 28 60  1  0  0  0  0
 29 30  2  0  0  0  0
 31 61  1  0  0  0  0
 31 62  1  0  0  0  0
 31 63  1  0  0  0  0
 32 64  1  0  0  0  0
 32 65  1  0  0  0  0
 32 66  1  0  0  0  0
M  CHG  1   6   1
M  END
