23336651
  -OEChem-04172510563D

 58 60  0     1  0  0  0  0  0999 V2000
   -0.9813    0.9572    0.2579 O   0  0  0  0  0  0  0  0  0  0  0  0
    1.2600   -0.0600   -0.8188 O   0  0  0  0  0  0  0  0  0  0  0  0
   -0.0825    0.1570    2.2178 O   0  0  0  0  0  0  0  0  0  0  0  0
    2.3931   -2.4204    0.0877 O   0  0  0  0  0  0  0  0  0  0  0  0
    5.5469    4.2880   -0.8308 O   0  0  0  0  0  0  0  0  0  0  0  0
   -3.9440    2.1045    0.0507 N   0  3  0  0  0  0  0  0  0  0  0  0
   -2.5537    2.7897    0.0590 C   0  0  0  0  0  0  0  0  0  0  0  0
   -3.8585    0.9523    1.0660 C   0  0  0  0  0  0  0  0  0  0  0  0
   -1.6944    1.9477    0.9889 C   0  0  1  0  0  0  0  0  0  0  0  0
   -2.6792    1.3120    1.9493 C   0  0  0  0  0  0  0  0  0  0  0  0
   -5.0210    3.0973    0.4719 C   0  0  0  0  0  0  0  0  0  0  0  0
   -4.2777    1.5709   -1.3330 C   0  0  0  0  0  0  0  0  0  0  0  0
   -0.1985    0.1097    0.9978 C   0  0  0  0  0  0  0  0  0  0  0  0
    0.5400   -0.8908    0.1074 C   0  0  1  0  0  0  0  0  0  0  0  0
   -0.4409   -1.7709   -0.6723 C   0  0  0  0  0  0  0  0  0  0  0  0
    1.6209   -1.6707    0.8702 C   0  0  0  0  0  0  0  0  0  0  0  0
    2.1811    0.7730   -0.1400 C   0  0  0  0  0  0  0  0  0  0  0  0
   -1.1952   -2.6887    0.0210 C   0  0  0  0  0  0  0  0  0  0  0  0
   -0.5297   -1.6089   -2.0354 C   0  0  0  0  0  0  0  0  0  0  0  0
    1.9101   -1.7212    2.1683 C   0  0  0  0  0  0  0  0  0  0  0  0
    2.9154    1.6297   -1.1615 C   0  0  0  0  0  0  0  0  0  0  0  0
    3.9168    2.5663   -0.4947 C   0  0  0  0  0  0  0  0  0  0  0  0
    3.0060   -2.6139    2.2415 C   0  0  0  0  0  0  0  0  0  0  0  0
   -2.0890   -3.4903   -0.6892 C   0  0  0  0  0  0  0  0  0  0  0  0
   -1.4236   -2.4105   -2.7454 C   0  0  0  0  0  0  0  0  0  0  0  0
    3.2616   -3.0113    0.9497 C   0  0  0  0  0  0  0  0  0  0  0  0
   -2.2032   -3.3512   -2.0722 C   0  0  0  0  0  0  0  0  0  0  0  0
    4.6204    3.4533   -1.5120 C   0  0  0  0  0  0  0  0  0  0  0  0
   -2.1745    2.8355   -0.9667 H   0  0  0  0  0  0  0  0  0  0  0  0
   -2.6884    3.8013    0.4561 H   0  0  0  0  0  0  0  0  0  0  0  0
   -4.8054    0.8654    1.6074 H   0  0  0  0  0  0  0  0  0  0  0  0
   -3.6633    0.0269    0.5121 H   0  0  0  0  0  0  0  0  0  0  0  0
   -0.9647    2.5822    1.5054 H   0  0  0  0  0  0  0  0  0  0  0  0
   -2.3454    0.4258    2.4903 H   0  0  0  0  0  0  0  0  0  0  0  0
   -2.9966    2.0521    2.6944 H   0  0  0  0  0  0  0  0  0  0  0  0
   -4.7927    3.4517    1.4813 H   0  0  0  0  0  0  0  0  0  0  0  0
   -5.0173    3.9293   -0.2385 H   0  0  0  0  0  0  0  0  0  0  0  0
   -5.9876    2.5851    0.4565 H   0  0  0  0  0  0  0  0  0  0  0  0
   -3.4824    0.8857   -1.6417 H   0  0  0  0  0  0  0  0  0  0  0  0
   -5.2359    1.0462   -1.2772 H   0  0  0  0  0  0  0  0  0  0  0  0
   -4.3402    2.4174   -2.0231 H   0  0  0  0  0  0  0  0  0  0  0  0
    2.9532    0.2108    0.3929 H   0  0  0  0  0  0  0  0  0  0  0  0
    1.6899    1.4527    0.5642 H   0  0  0  0  0  0  0  0  0  0  0  0
   -1.1178   -2.8015    1.0979 H   0  0  0  0  0  0  0  0  0  0  0  0
    0.0549   -0.8878   -2.5959 H   0  0  0  0  0  0  0  0  0  0  0  0
    1.4619   -1.2403    3.0219 H   0  0  0  0  0  0  0  0  0  0  0  0
    2.1839    2.2077   -1.7404 H   0  0  0  0  0  0  0  0  0  0  0  0
    3.4252    0.9804   -1.8842 H   0  0  0  0  0  0  0  0  0  0  0  0
    4.6644    1.9891    0.0637 H   0  0  0  0  0  0  0  0  0  0  0  0
    3.4099    3.1964    0.2468 H   0  0  0  0  0  0  0  0  0  0  0  0
    3.5413   -2.9301    3.1252 H   0  0  0  0  0  0  0  0  0  0  0  0
   -2.6971   -4.2217   -0.1649 H   0  0  0  0  0  0  0  0  0  0  0  0
   -1.5140   -2.3018   -3.8223 H   0  0  0  0  0  0  0  0  0  0  0  0
    3.9867   -3.6746    0.5011 H   0  0  0  0  0  0  0  0  0  0  0  0
   -2.8998   -3.9746   -2.6250 H   0  0  0  0  0  0  0  0  0  0  0  0
    3.9107    4.0868   -2.0535 H   0  0  0  0  0  0  0  0  0  0  0  0
    5.1749    2.8529   -2.2396 H   0  0  0  0  0  0  0  0  0  0  0  0
    5.0429    4.8392   -0.2080 H   0  0  0  0  0  0  0  0  0  0  0  0
  1  9  1  0  0  0  0
  1 13  1  0  0  0  0
  2 14  1  0  0  0  0
  2 17  1  0  0  0  0
  3 13  2  0  0  0  0
  4 16  1  0  0  0  0
  4 26  1  0  0  0  0
  5 28  1  0  0  0  0
  5 58  1  0  0  0  0
  6  7  1  0  0  0  0
  6  8  1  0  0  0  0
  6 11  1  0  0  0  0
  6 12  1  0  0  0  0
  7  9  1  0  0  0  0
  7 29  1  0  0  0  0
  7 30  1  0  0  0  0
  8 10  1  0  0  0  0
  8 31  1  0  0  0  0
  8 32  1  0  0  0  0
  9 10  1  0  0  0  0
  9 33  1  0  0  0  0
 10 34  1  0  0  0  0
 10 35  1  0  0  0  0
 11 36  1  0  0  0  0
 11 37  1  0  0  0  0
 11 38  1  0  0  0  0
 12 39  1  0  0  0  0
 12 40  1  0  0  0  0
 12 41  1  0  0  0  0
 13 14  1  0  0  0  0
 14 15  1  0  0  0  0
 14 16  1  0  0  0  0
 15 18  2  0  0  0  0
 15 19  1  0  0  0  0
 16 20  2  0  0  0  0
 17 21  1  0  0  0  0
 17 42  1  0  0  0  0
 17 43  1  0  0  0  0
 18 24  1  0  0  0  0
 18 44  1  0  0  0  0
 19 25  2  0  0  0  0
 19 45  1  0  0  0  0
 20 23  1  0  0  0  0
 20 46  1  0  0  0  0
 21 22  1  0  0  0  0
 21 47  1  0  0  0  0
 21 48  1  0  0  0  0
 22 28  1  0  0  0  0
 22 49  1  0  0  0  0
 22 50  1  0  0  0  0
 23 26  2  0  0  0  0
 23 51  1  0  0  0  0
 24 27  2  0  0  0  0
 24 52  1  0  0  0  0
 25 27  1  0  0  0  0
 25 53  1  0  0  0  0
 26 54  1  0  0  0  0
 27 55  1  0  0  0  0
 28 56  1  0  0  0  0
 28 57  1  0  0  0  0
M  CHG  1   6   1
M  END
> <PUBCHEM_COMPOUND_CID>
23336651

> <PUBCHEM_CONFORMER_RMSD>
1.2

> <PUBCHEM_CONFORMER_DIVERSEORDER>
1
331
10
161
143
537
57
363
81
330
480
166
84
498
260
566
134
140
225
518
438
196
91
397
373
203
73
54
121
48
224
526
340
213
401
446
473
417
29
46
68
265
390
307
109
502
305
7
163
78
462
124
127
475
281
316
219
39
388
179
222
200
209
194
17
141
287
262
51
217
146
177
414
34
251
206
487
49
122
507
30
4
6
130
259
169
501
493
28
43
110
125
23
247
383
171
406
469
236
208
12
150
418
63
274
441
14
546
155
160
240
8
415
18
385
142
32
5
99
3
9
38
97
70
47
15
336
50
227
67
289
24

> <PUBCHEM_MMFF94_PARTIAL_CHARGES>
34
1 -0.43
11 0.5
12 0.5
13 0.66
14 0.66
15 -0.14
16 -0.04
17 0.28
18 -0.15
19 -0.15
2 -0.56
20 -0.15
23 -0.15
24 -0.15
25 -0.15
26 -0.01
27 -0.15
28 0.28
3 -0.57
4 -0.28
44 0.15
45 0.15
46 0.15
5 -0.68
51 0.15
52 0.15
53 0.15
54 0.15
55 0.15
58 0.4
6 -1.01
7 0.5
8 0.5
9 0.28

> <PUBCHEM_EFFECTIVE_ROTOR_COUNT>
11

> <PUBCHEM_PHARMACOPHORE_FEATURES>
9
1 2 acceptor
1 3 acceptor
1 4 acceptor
1 5 acceptor
1 5 donor
1 6 cation
5 4 16 20 23 26 rings
5 6 7 8 9 10 rings
6 15 18 19 24 25 27 rings

> <PUBCHEM_HEAVY_ATOM_COUNT>
28

> <PUBCHEM_ATOM_DEF_STEREO_COUNT>
0

> <PUBCHEM_ATOM_UDEF_STEREO_COUNT>
2

> <PUBCHEM_BOND_DEF_STEREO_COUNT>
0

> <PUBCHEM_BOND_UDEF_STEREO_COUNT>
0

> <PUBCHEM_ISOTOPIC_ATOM_COUNT>
0

> <PUBCHEM_COMPONENT_COUNT>
1

> <PUBCHEM_CACTVS_TAUTO_COUNT>
1

> <PUBCHEM_CONFORMER_ID>
016416CB00000001

> <PUBCHEM_MMFF94_ENERGY>
82.2507

> <PUBCHEM_FEATURE_SELFOVERLAP>
45.677

> <PUBCHEM_SHAPE_FINGERPRINT>
10756046 70 18338508626150554566
10759866 29 18409161143170396439
10871710 139 18050577527330210772
11421498 54 18049436238592885575
11578080 2 15792292571015989838
11582403 64 17974891394786625758
12058002 1 17753853333897078570
12160290 23 17703781561836847007
12293681 160 17760354887991142934
12788726 201 17906168808863555120
13134695 92 17681559134426502496
133893 2 17750210622262899202
13583140 156 17895484609125340371
13726171 33 18200613474554260689
14863182 85 17557137303584964999
14943834 7 18410564107096364250
14955137 171 18046634404404127450
15849732 13 18123184598510552698
17492 54 18270109236764090871
17980427 23 17977100158864701944
17980427 26 17603861165844233138
18681886 176 18196653986720643114
20197701 30 17412154600713896955
20739085 24 17622437247408399983
21033648 29 17552886587189284672
21304303 282 18192993948925050796
22907989 373 18059578035463429855
23419403 2 16588577583570211294
23558518 356 18117852212076090070
25222932 49 17756745114588882955
266924 1 18338505456570243710
283562 15 17975976784614465142
394222 165 18338533936445708024
469060 322 17679305427905917861
508706 21 17547019984482432440
9981440 41 17969798542979549064

> <PUBCHEM_SHAPE_MULTIPOLES>
541.9
8.35
5.68
2.33
0.72
1.15
-0.12
10.98
-0.64
3.14
-2.21
0.18
-1.37
-5.09

> <PUBCHEM_SHAPE_SELFOVERLAP>
1142.361

> <PUBCHEM_SHAPE_VOLUME>
306.6

> <PUBCHEM_COORDINATE_TYPE>
2
5
10

$$$$
