21454865
  -OEChem-04152518233D

 48 51  0     1  0  0  0  0  0999 V2000
    0.1344   -0.1589    2.1811 S   0  0  0  0  0  0  0  0  0  0  0  0
   -4.4586   -0.1148    0.7726 S   0  0  0  0  0  0  0  0  0  0  0  0
    5.0569   -1.1302   -1.2296 S   0  0  0  0  0  0  0  0  0  0  0  0
    8.0092   -2.1493    0.2416 S   0  0  0  0  0  0  0  0  0  0  0  0
    0.6242    3.3597   -0.8178 O   0  0  0  0  0  0  0  0  0  0  0  0
   -1.3597    1.6082   -2.5697 O   0  0  0  0  0  0  0  0  0  0  0  0
    4.0577    0.4181    1.9777 O   0  0  0  0  0  0  0  0  0  0  0  0
   -3.0643    2.1741   -1.1541 O   0  0  0  0  0  0  0  0  0  0  0  0
   -0.0322    1.2171   -0.0834 N   0  0  0  0  0  0  0  0  0  0  0  0
    3.1438    1.6830    0.2609 N   0  0  0  0  0  0  0  0  0  0  0  0
   -7.1510   -0.7238    0.5849 N   0  0  0  0  0  0  0  0  0  0  0  0
   -5.9275   -1.8760   -0.7855 N   0  0  0  0  0  0  0  0  0  0  0  0
   -8.0101   -1.5096   -0.0791 N   0  0  0  0  0  0  0  0  0  0  0  0
   -7.2561   -2.2118   -0.9161 N   0  0  0  0  0  0  0  0  0  0  0  0
    0.9226    0.4146    0.6592 C   0  0  1  0  0  0  0  0  0  0  0  0
    1.7723    1.6996    0.7683 C   0  0  2  0  0  0  0  0  0  0  0  0
    0.7448    2.3130   -0.2252 C   0  0  0  0  0  0  0  0  0  0  0  0
   -1.2761    0.7901   -0.4211 C   0  0  0  0  0  0  0  0  0  0  0  0
   -1.8301   -0.3020    0.1575 C   0  0  0  0  0  0  0  0  0  0  0  0
   -1.1666   -1.0793    1.2922 C   0  0  0  0  0  0  0  0  0  0  0  0
   -3.1703   -0.8855   -0.2211 C   0  0  0  0  0  0  0  0  0  0  0  0
    4.1857    1.0330    0.9201 C   0  0  0  0  0  0  0  0  0  0  0  0
   -2.0193    1.6039   -1.3946 C   0  0  0  0  0  0  0  0  0  0  0  0
    5.5201    1.1557    0.2107 C   0  0  0  0  0  0  0  0  0  0  0  0
    6.0419   -0.2229   -0.1146 C   0  0  0  0  0  0  0  0  0  0  0  0
   -5.8854   -0.9535    0.1481 C   0  0  0  0  0  0  0  0  0  0  0  0
    7.1958   -0.6401    0.4351 C   0  0  0  0  0  0  0  0  0  0  0  0
    5.6608   -2.8194   -1.0133 C   0  0  0  0  0  0  0  0  0  0  0  0
    7.1658   -2.8815   -1.1781 C   0  0  0  0  0  0  0  0  0  0  0  0
   -7.6286    0.1885    1.5930 C   0  0  0  0  0  0  0  0  0  0  0  0
    1.3724   -0.3770    0.0473 H   0  0  0  0  0  0  0  0  0  0  0  0
    1.7325    2.2097    1.7404 H   0  0  0  0  0  0  0  0  0  0  0  0
   -0.7355   -2.0042    0.8931 H   0  0  0  0  0  0  0  0  0  0  0  0
   -1.9086   -1.3584    2.0473 H   0  0  0  0  0  0  0  0  0  0  0  0
    3.3586    2.1653   -0.6085 H   0  0  0  0  0  0  0  0  0  0  0  0
   -3.1692   -1.9716   -0.0728 H   0  0  0  0  0  0  0  0  0  0  0  0
   -3.3773   -0.7171   -1.2839 H   0  0  0  0  0  0  0  0  0  0  0  0
    6.1904    1.7098    0.8788 H   0  0  0  0  0  0  0  0  0  0  0  0
    5.4349    1.7513   -0.7058 H   0  0  0  0  0  0  0  0  0  0  0  0
   -1.8223    2.1414   -3.2509 H   0  0  0  0  0  0  0  0  0  0  0  0
    7.7048    0.0375    1.1159 H   0  0  0  0  0  0  0  0  0  0  0  0
    5.1868   -3.4340   -1.7860 H   0  0  0  0  0  0  0  0  0  0  0  0
    5.3338   -3.2154   -0.0451 H   0  0  0  0  0  0  0  0  0  0  0  0
    7.4806   -3.9288   -1.2368 H   0  0  0  0  0  0  0  0  0  0  0  0
    7.4990   -2.3961   -2.1026 H   0  0  0  0  0  0  0  0  0  0  0  0
   -7.1619   -0.0712    2.5463 H   0  0  0  0  0  0  0  0  0  0  0  0
   -8.7149    0.1015    1.6792 H   0  0  0  0  0  0  0  0  0  0  0  0
   -7.3636    1.2059    1.2950 H   0  0  0  0  0  0  0  0  0  0  0  0
  1 15  1  0  0  0  0
  1 20  1  0  0  0  0
  2 21  1  0  0  0  0
  2 26  1  0  0  0  0
  3 25  1  0  0  0  0
  3 28  1  0  0  0  0
  4 27  1  0  0  0  0
  4 29  1  0  0  0  0
  5 17  2  0  0  0  0
  6 23  1  0  0  0  0
  6 40  1  0  0  0  0
  7 22  2  0  0  0  0
  8 23  2  0  0  0  0
  9 15  1  0  0  0  0
  9 17  1  0  0  0  0
  9 18  1  0  0  0  0
 10 16  1  0  0  0  0
 10 22  1  0  0  0  0
 10 35  1  0  0  0  0
 11 13  1  0  0  0  0
 11 26  1  0  0  0  0
 11 30  1  0  0  0  0
 12 14  1  0  0  0  0
 12 26  2  0  0  0  0
 13 14  2  0  0  0  0
 15 16  1  0  0  0  0
 15 31  1  0  0  0  0
 16 17  1  0  0  0  0
 16 32  1  0  0  0  0
 18 19  2  0  0  0  0
 18 23  1  0  0  0  0
 19 20  1  0  0  0  0
 19 21  1  0  0  0  0
 20 33  1  0  0  0  0
 20 34  1  0  0  0  0
 21 36  1  0  0  0  0
 21 37  1  0  0  0  0
 22 24  1  0  0  0  0
 24 25  1  0  0  0  0
 24 38  1  0  0  0  0
 24 39  1  0  0  0  0
 25 27  2  0  0  0  0
 27 41  1  0  0  0  0
 28 29  1  0  0  0  0
 28 42  1  0  0  0  0
 28 43  1  0  0  0  0
 29 44  1  0  0  0  0
 29 45  1  0  0  0  0
 30 46  1  0  0  0  0
 30 47  1  0  0  0  0
 30 48  1  0  0  0  0
M  END
> <PUBCHEM_COMPOUND_CID>
21454865

> <PUBCHEM_CONFORMER_RMSD>
1

> <PUBCHEM_CONFORMER_DIVERSEORDER>
1
111
315
318
220
403
60
312
290
184
419
291
44
413
254
248
182
231
331
68
300
323
269
166
131
198
393
360
272
137
236
115
88
423
447
225
230
319
446
59
347
177
342
196
292
70
387
223
64
37
341
321
31
329
434
121
239
391
49
267
438
185
141
271
381
4
56
309
233
317
135
186
420
354
401
324
147
94
288
35
216
451
302
95
227
435
348
36
404
232
264
224
304
143
46
97
201
181
234
125
21
389
175
408
84
174
11
344
425
345
149
313
9
427
429
343
414
235
192
33
334
32
263
77
246
150
229
58
217
349
93
295
90
161
436
163
255
128
367
105
282
29
371
266
365
189
153
197
162
366
289
316
76
47
251
337
359
183
156
242
409
286
25
50
452
372
398
238
294
283
98
399
453
395
320
51
215
148
75
325
270
109
284
330
176
259
240
53
322
353
346
142
61
205
328
91
364
157
273
113
86
136
338
171
437
243
124
432
426
209
377
228
193
144
370
34
442
123
445
119
379
277
433
130
279
45
133
281
129
154
127
122
449
410
110
116
351
394
415
406
306
373
180
412
253
107
195
134
17
245
374
285
24
71
293
262
106
332
72
244
14
194
159
78
424
213
311
55
358
140
6
206
170
397
66
440
392
363
405
368
339
280
357
275
327
173
218
38
444
303
382
222
199
30
168
226
308
65
27
386
274
96
26
73
160
301
439
378
172
41
390
219
297
212
416
52
252
278
87
108
333
407
396
428
16
361
83
63
208
132
145
417
380
5
431
350
103
362
101
178
307
40
247
89
23
165
190
450
369
28
411
187
388
191
310
139
211
117
384
151
261
155
12
326
7
422
250
336
74
249
421
352
67
237
85
385
167
355
158
19
112
305
42
454
10
200
268
22
104
441
82
221
299
430
92
188
57
39
204
18
62
356
202
164
400
114
81
241
314
375
207
296
265
340
152
102
43
120
376
210
214
3
48
402
69
448
257
15
256
146
54
118
138
443
13
99
258
126
276
2
335
418
100
260
79
20
8
169
179
203
383
287
298
80

> <PUBCHEM_MMFF94_PARTIAL_CHARGES>
32
1 -0.45
10 -0.65
11 0.31
12 -0.34
13 -0.42
15 0.44
16 0.28
17 0.58
18 0.12
19 -0.28
2 -0.29
20 0.37
21 0.37
22 0.57
23 0.71
24 0.2
25 -0.04
26 0.24
27 -0.05
28 0.23
29 0.23
3 -0.33
30 0.26
35 0.37
4 -0.33
40 0.5
41 0.15
5 -0.57
6 -0.65
7 -0.57
8 -0.57
9 -0.39

> <PUBCHEM_EFFECTIVE_ROTOR_COUNT>
9.4

> <PUBCHEM_PHARMACOPHORE_FEATURES>
11
1 10 donor
1 5 acceptor
1 6 acceptor
1 7 acceptor
1 8 acceptor
3 11 12 26 cation
3 6 8 23 anion
4 9 15 16 17 rings
5 11 12 13 14 26 rings
6 1 9 15 18 19 20 rings
6 3 4 25 27 28 29 rings

> <PUBCHEM_HEAVY_ATOM_COUNT>
30

> <PUBCHEM_ATOM_DEF_STEREO_COUNT>
0

> <PUBCHEM_ATOM_UDEF_STEREO_COUNT>
2

> <PUBCHEM_BOND_DEF_STEREO_COUNT>
0

> <PUBCHEM_BOND_UDEF_STEREO_COUNT>
0

> <PUBCHEM_ISOTOPIC_ATOM_COUNT>
0

> <PUBCHEM_COMPONENT_COUNT>
1

> <PUBCHEM_CACTVS_TAUTO_COUNT>
2

> <PUBCHEM_CONFORMER_ID>
0147601100000001

> <PUBCHEM_MMFF94_ENERGY>
66.8323

> <PUBCHEM_FEATURE_SELFOVERLAP>
56.136

> <PUBCHEM_SHAPE_FINGERPRINT>
10 15 14405186204899256040
11828532 37 17968951906230936658
11991303 11 14996291356725870234
13533116 47 18060701719219869576
13617811 41 17022903453943622910
13673619 4 18333730217146079044
13685833 64 18272933813168547930
13782708 43 18412543223462160575
14216079 64 18412826884788331850
14294032 229 16951678083224604269
14556957 393 15213298582234219351
15131766 46 16483577774766239640
15183329 4 18186514432286686291
15198563 99 17168130223027597141
15352257 5 18342458144842468134
15475509 8 18334299764258600281
16728300 4 17202489904996473134
16994733 274 11530474554182265519
18603816 31 17774712165057003647
18643901 69 18186804655774077430
19301679 30 17346329137840665536
19841028 212 18060143090373774134
20105231 36 17749113305495631587
2026 5 18264486192572167514
20554085 129 12103846739525882476
21130935 74 18130506452471489635
21267235 1 18187364337262992545
21344244 181 18334015008196433970
21641784 216 16732696121435715852
21682296 61 18411141333330764233
21781051 124 16878521114675593419
23569917 315 18265618857205663883
23569943 247 18339925900654930499
34797466 226 17822012051661545148
4258327 124 12757443747266577354
437815 12 18408325501179528473
439807 62 18334860494315640722
504579 68 15430039842425162058
5265222 85 13118006626018808577
59755656 215 17894623773373226651

> <PUBCHEM_SHAPE_MULTIPOLES>
579.42
23.6
2.93
1.64
6.74
0.01
0
-21.57
-0.44
-2.21
1.3
0.4
0.33
1.4

> <PUBCHEM_SHAPE_SELFOVERLAP>
1172.819

> <PUBCHEM_SHAPE_VOLUME>
339.5

> <PUBCHEM_COORDINATE_TYPE>
2
5
10

$$$$
