59091086
  -OEChem-04112506523D

 60 62  0     1  0  0  0  0  0999 V2000
   -2.0918    1.8391    2.0277 S   0  0  0  0  0  0  0  0  0  0  0  0
   -1.4090    1.4855   -2.3078 O   0  0  0  0  0  0  0  0  0  0  0  0
   -4.9832    3.2778   -1.1451 O   0  0  0  0  0  0  0  0  0  0  0  0
    1.6157    1.1416   -1.5571 O   0  0  0  0  0  0  0  0  0  0  0  0
    4.2300    1.5179    1.3590 O   0  0  0  0  0  0  0  0  0  0  0  0
   -0.4416   -5.2022   -0.0622 O   0  0  0  0  0  0  0  0  0  0  0  0
    6.2141    2.7345   -0.4278 O   0  0  0  0  0  0  0  0  0  0  0  0
   -2.4944   -4.1032   -0.3015 O   0  0  0  0  0  0  0  0  0  0  0  0
   -2.5301    2.4315   -0.4590 N   0  0  0  0  0  0  0  0  0  0  0  0
    0.3785    1.5709    0.3580 N   0  0  0  0  0  0  0  0  0  0  0  0
    3.4625   -0.2035    0.0029 N   0  0  0  0  0  0  0  0  0  0  0  0
    8.0160    1.3379   -0.1342 N   0  0  0  0  0  0  0  0  0  0  0  0
   -1.7062    2.9590    0.6326 C   0  0  2  0  0  0  0  0  0  0  0  0
   -3.6537    1.5739   -0.1409 C   0  0  1  0  0  0  0  0  0  0  0  0
   -3.8246    1.5831    1.3934 C   0  0  0  0  0  0  0  0  0  0  0  0
   -0.4749    2.6091   -0.2145 C   0  0  2  0  0  0  0  0  0  0  0  0
   -1.4803    2.0877   -1.2606 C   0  0  0  0  0  0  0  0  0  0  0  0
   -4.6974    2.7255    1.9305 C   0  0  0  0  0  0  0  0  0  0  0  0
   -4.3477    0.2394    1.9043 C   0  0  0  0  0  0  0  0  0  0  0  0
   -4.8273    2.0789   -0.9183 C   0  0  0  0  0  0  0  0  0  0  0  0
   -5.8083    1.0485   -1.4088 C   0  0  0  0  0  0  0  0  0  0  0  0
    1.3693    0.9130   -0.3742 C   0  0  0  0  0  0  0  0  0  0  0  0
    2.0866   -0.1608    0.4335 C   0  0  1  0  0  0  0  0  0  0  0  0
    1.4122   -1.5065    0.3016 C   0  0  0  0  0  0  0  0  0  0  0  0
    1.2619   -2.0904   -0.9561 C   0  0  0  0  0  0  0  0  0  0  0  0
    0.9396   -2.1646    1.4371 C   0  0  0  0  0  0  0  0  0  0  0  0
    4.4292    0.6519    0.5102 C   0  0  0  0  0  0  0  0  0  0  0  0
    0.6393   -3.3326   -1.0784 C   0  0  0  0  0  0  0  0  0  0  0  0
    0.3169   -3.4066    1.3150 C   0  0  0  0  0  0  0  0  0  0  0  0
    5.7996    0.3842   -0.0763 C   0  0  0  0  0  0  0  0  0  0  0  0
    0.1669   -3.9907    0.0571 C   0  0  0  0  0  0  0  0  0  0  0  0
    6.6699    1.6120   -0.2246 C   0  0  0  0  0  0  0  0  0  0  0  0
   -1.8320   -5.1308   -0.2478 C   0  0  0  0  0  0  0  0  0  0  0  0
   -2.4060   -6.5114   -0.3676 C   0  0  0  0  0  0  0  0  0  0  0  0
   -1.8760    4.0240    0.8151 H   0  0  0  0  0  0  0  0  0  0  0  0
   -3.3996    0.5700   -0.5062 H   0  0  0  0  0  0  0  0  0  0  0  0
    0.0967    3.4781   -0.5573 H   0  0  0  0  0  0  0  0  0  0  0  0
   -4.3631    3.7077    1.5784 H   0  0  0  0  0  0  0  0  0  0  0  0
   -5.7408    2.6022    1.6182 H   0  0  0  0  0  0  0  0  0  0  0  0
   -4.6972    2.7471    3.0270 H   0  0  0  0  0  0  0  0  0  0  0  0
   -5.3659    0.0535    1.5469 H   0  0  0  0  0  0  0  0  0  0  0  0
   -3.7244   -0.5966    1.5659 H   0  0  0  0  0  0  0  0  0  0  0  0
   -4.3798    0.2102    2.9998 H   0  0  0  0  0  0  0  0  0  0  0  0
    0.2501    1.2985    1.3297 H   0  0  0  0  0  0  0  0  0  0  0  0
   -6.3002    0.5685   -0.5608 H   0  0  0  0  0  0  0  0  0  0  0  0
   -5.2897    0.3040   -2.0180 H   0  0  0  0  0  0  0  0  0  0  0  0
   -6.5688    1.5340   -2.0271 H   0  0  0  0  0  0  0  0  0  0  0  0
    2.0876    0.1477    1.4871 H   0  0  0  0  0  0  0  0  0  0  0  0
    3.7256   -0.8714   -0.7164 H   0  0  0  0  0  0  0  0  0  0  0  0
    1.6262   -1.5972   -1.8531 H   0  0  0  0  0  0  0  0  0  0  0  0
    1.0487   -1.7218    2.4235 H   0  0  0  0  0  0  0  0  0  0  0  0
    0.5265   -3.7826   -2.0610 H   0  0  0  0  0  0  0  0  0  0  0  0
   -0.0489   -3.9139    2.2036 H   0  0  0  0  0  0  0  0  0  0  0  0
    6.2909   -0.3475    0.5755 H   0  0  0  0  0  0  0  0  0  0  0  0
    5.7077   -0.0639   -1.0724 H   0  0  0  0  0  0  0  0  0  0  0  0
    8.3723    0.4002    0.0200 H   0  0  0  0  0  0  0  0  0  0  0  0
    8.7052    2.0771   -0.2236 H   0  0  0  0  0  0  0  0  0  0  0  0
   -1.9611   -7.0228   -1.2246 H   0  0  0  0  0  0  0  0  0  0  0  0
   -3.4863   -6.4429   -0.5242 H   0  0  0  0  0  0  0  0  0  0  0  0
   -2.2203   -7.0692    0.5534 H   0  0  0  0  0  0  0  0  0  0  0  0
  1 13  1  0  0  0  0
  1 15  1  0  0  0  0
  2 17  2  0  0  0  0
  3 20  2  0  0  0  0
  4 22  2  0  0  0  0
  5 27  2  0  0  0  0
  6 31  1  0  0  0  0
  6 33  1  0  0  0  0
  7 32  2  0  0  0  0
  8 33  2  0  0  0  0
  9 13  1  0  0  0  0
  9 14  1  0  0  0  0
  9 17  1  0  0  0  0
 10 16  1  0  0  0  0
 10 22  1  0  0  0  0
 10 44  1  0  0  0  0
 11 23  1  0  0  0  0
 11 27  1  0  0  0  0
 11 49  1  0  0  0  0
 12 32  1  0  0  0  0
 12 56  1  0  0  0  0
 12 57  1  0  0  0  0
 13 16  1  0  0  0  0
 13 35  1  0  0  0  0
 14 15  1  0  0  0  0
 14 20  1  0  0  0  0
 14 36  1  0  0  0  0
 15 18  1  0  0  0  0
 15 19  1  0  0  0  0
 16 17  1  0  0  0  0
 16 37  1  0  0  0  0
 18 38  1  0  0  0  0
 18 39  1  0  0  0  0
 18 40  1  0  0  0  0
 19 41  1  0  0  0  0
 19 42  1  0  0  0  0
 19 43  1  0  0  0  0
 20 21  1  0  0  0  0
 21 45  1  0  0  0  0
 21 46  1  0  0  0  0
 21 47  1  0  0  0  0
 22 23  1  0  0  0  0
 23 24  1  0  0  0  0
 23 48  1  0  0  0  0
 24 25  2  0  0  0  0
 24 26  1  0  0  0  0
 25 28  1  0  0  0  0
 25 50  1  0  0  0  0
 26 29  2  0  0  0  0
 26 51  1  0  0  0  0
 27 30  1  0  0  0  0
 28 31  2  0  0  0  0
 28 52  1  0  0  0  0
 29 31  1  0  0  0  0
 29 53  1  0  0  0  0
 30 32  1  0  0  0  0
 30 54  1  0  0  0  0
 30 55  1  0  0  0  0
 33 34  1  0  0  0  0
 34 58  1  0  0  0  0
 34 59  1  0  0  0  0
 34 60  1  0  0  0  0
M  END
> <PUBCHEM_COMPOUND_CID>
59091086

> <PUBCHEM_CONFORMER_RMSD>
1.2

> <PUBCHEM_CONFORMER_DIVERSEORDER>
1
39
22
23
14
31
10
34
18
26
21
8
38
19
16
27
5
36
2
11
28
37
7
35
15
13
20
33
3
40
17
41
6
12
9
24
32
29
4
30
25

> <PUBCHEM_MMFF94_PARTIAL_CHARGES>
40
1 -0.45
10 -0.65
11 -0.73
12 -0.8
13 0.44
14 0.36
15 0.23
16 0.28
17 0.58
2 -0.57
20 0.45
21 0.06
22 0.57
23 0.5
24 -0.14
25 -0.15
26 -0.15
27 0.57
28 -0.15
29 -0.15
3 -0.57
30 0.12
31 0.08
32 0.57
33 0.66
34 0.06
4 -0.57
44 0.37
49 0.37
5 -0.57
50 0.15
51 0.15
52 0.15
53 0.15
56 0.37
57 0.37
6 -0.23
7 -0.57
8 -0.57
9 -0.59

> <PUBCHEM_EFFECTIVE_ROTOR_COUNT>
11.8

> <PUBCHEM_PHARMACOPHORE_FEATURES>
13
1 10 donor
1 11 donor
1 12 donor
1 2 acceptor
1 3 acceptor
1 30 anion
1 4 acceptor
1 5 acceptor
1 7 acceptor
1 8 acceptor
3 15 18 19 hydrophobe
6 24 25 26 28 29 31 rings
7 1 9 13 14 15 16 17 rings

> <PUBCHEM_HEAVY_ATOM_COUNT>
34

> <PUBCHEM_ATOM_DEF_STEREO_COUNT>
3

> <PUBCHEM_ATOM_UDEF_STEREO_COUNT>
1

> <PUBCHEM_BOND_DEF_STEREO_COUNT>
0

> <PUBCHEM_BOND_UDEF_STEREO_COUNT>
0

> <PUBCHEM_ISOTOPIC_ATOM_COUNT>
0

> <PUBCHEM_COMPONENT_COUNT>
1

> <PUBCHEM_CACTVS_TAUTO_COUNT>
96

> <PUBCHEM_CONFORMER_ID>
0385A88E00000001

> <PUBCHEM_MMFF94_ENERGY>
92.2405

> <PUBCHEM_FEATURE_SELFOVERLAP>
65.975

> <PUBCHEM_SHAPE_FINGERPRINT>
10074138 170 18123439878581692882
10815517 723 18196380435932940699
10928967 22 17046274394680270343
11331351 85 17694507344233510598
11421498 54 17702665419736959944
11488393 25 17976263431011804202
11991303 11 18334301980973460446
12156800 1 18122654857038185950
12440605 4 17685231847130521688
12597179 24 18272657827302635542
12788726 201 18046050812990888794
13590594 115 17831300866957290322
13911987 19 18408599236736461172
14068700 686 18189898604212498276
14150022 121 17909541002747590888
14363568 33 17764044466725674387
14556957 393 17683258215658651644
15276724 80 18051137196740825780
15927050 60 18409730639213756714
16993438 75 18261955258179738723
17138139 8 17843368961028956799
17809404 112 17241901874057063169
18365409 1 18337106873236592351
19309040 13 13080654737948574655
19319366 153 18198615541039272412
20587220 17 17410254657801266137
21133410 38 18129392519119123883
21304303 172 18051982707960469742
21796203 349 17331428383851184523
255183 313 18336278919653616288
3103668 31 18192989542141510015
3383291 50 18124316005172500778
354706 35 18262501612695591215
4403749 210 18334574672130594984
59755656 520 18413672396872645396
6669772 16 18341334375930514174
9658208 31 18270103713357494632

> <PUBCHEM_SHAPE_MULTIPOLES>
642.54
12.87
7.65
1.68
17.58
18.06
-0.22
-16.66
0.54
-5.12
0.73
-2.02
-0.83
-0.4

> <PUBCHEM_SHAPE_SELFOVERLAP>
1341.281

> <PUBCHEM_SHAPE_VOLUME>
366

> <PUBCHEM_COORDINATE_TYPE>
2
5
10

$$$$
