70605955
  -OEChem-04152518113D

 49 52  0     1  0  0  0  0  0999 V2000
    0.1490    1.8616    0.9210 S   0  0  0  0  0  0  0  0  0  0  0  0
    4.7424    0.4685    0.7410 S   0  0  0  0  0  0  0  0  0  0  0  0
   -5.3200    0.9640   -2.3361 S   0  0  0  0  0  0  0  0  0  0  0  0
   -0.7746   -2.6939    0.8306 O   0  0  0  0  0  0  0  0  0  0  0  0
    1.6388   -2.7298   -1.2303 O   0  0  0  0  0  0  0  0  0  0  0  0
   -3.7753    1.6668    0.4161 O   0  0  0  0  0  0  0  0  0  0  0  0
    3.0876   -2.3788    0.5040 O   0  0  0  0  0  0  0  0  0  0  0  0
   -7.1673   -0.8724    0.3603 O   0  0  0  0  0  0  0  0  0  0  0  0
    0.2221   -0.6733    0.1349 N   0  0  0  0  0  0  0  0  0  0  0  0
   -3.0010   -0.4939    0.1045 N   0  0  0  0  0  0  0  0  0  0  0  0
    7.5288    0.5474    0.7755 N   0  0  0  0  0  0  0  0  0  0  0  0
    6.7152    0.6159   -1.2333 N   0  0  0  0  0  0  0  0  0  0  0  0
    8.5946    0.6171   -0.0341 N   0  0  0  0  0  0  0  0  0  0  0  0
    8.0910    0.6584   -1.2616 N   0  0  0  0  0  0  0  0  0  0  0  0
   -0.6151    0.5052    0.0030 C   0  0  1  0  0  0  0  0  0  0  0  0
   -1.7016   -0.3014    0.7473 C   0  0  2  0  0  0  0  0  0  0  0  0
   -0.7374   -1.5109    0.5846 C   0  0  0  0  0  0  0  0  0  0  0  0
    1.5472   -0.6949   -0.1609 C   0  0  0  0  0  0  0  0  0  0  0  0
    2.2543    0.4489   -0.3226 C   0  0  0  0  0  0  0  0  0  0  0  0
    1.6668    1.8394   -0.0921 C   0  0  0  0  0  0  0  0  0  0  0  0
    3.7067    0.5084   -0.7309 C   0  0  0  0  0  0  0  0  0  0  0  0
   -3.9483    0.5262   -0.0100 C   0  0  0  0  0  0  0  0  0  0  0  0
    2.1935   -2.0137   -0.2327 C   0  0  0  0  0  0  0  0  0  0  0  0
   -5.2090    0.0815   -0.7425 C   0  0  1  0  0  0  0  0  0  0  0  0
   -6.4555    0.2553    0.0990 C   0  0  0  0  0  0  0  0  0  0  0  0
    6.3889    0.5474    0.0367 C   0  0  0  0  0  0  0  0  0  0  0  0
   -7.0514    1.3492    0.6825 C   0  0  0  0  0  0  0  0  0  0  0  0
   -4.0418    0.0466   -3.2230 C   0  0  0  0  0  0  0  0  0  0  0  0
   -8.2033    0.8622    1.3451 C   0  0  0  0  0  0  0  0  0  0  0  0
   -8.2294   -0.4945    1.1191 C   0  0  0  0  0  0  0  0  0  0  0  0
    7.7039    0.4873    2.2049 C   0  0  0  0  0  0  0  0  0  0  0  0
   -0.8559    0.7350   -1.0422 H   0  0  0  0  0  0  0  0  0  0  0  0
   -1.8358   -0.0449    1.8071 H   0  0  0  0  0  0  0  0  0  0  0  0
    2.3881    2.4757    0.4310 H   0  0  0  0  0  0  0  0  0  0  0  0
    1.4530    2.3067   -1.0597 H   0  0  0  0  0  0  0  0  0  0  0  0
   -3.2322   -1.4060   -0.2819 H   0  0  0  0  0  0  0  0  0  0  0  0
    3.9054    1.4158   -1.3126 H   0  0  0  0  0  0  0  0  0  0  0  0
    3.9625   -0.3374   -1.3788 H   0  0  0  0  0  0  0  0  0  0  0  0
   -5.1413   -0.9872   -0.9798 H   0  0  0  0  0  0  0  0  0  0  0  0
    2.0418   -3.6203   -1.3140 H   0  0  0  0  0  0  0  0  0  0  0  0
   -6.7032    2.3713    0.6388 H   0  0  0  0  0  0  0  0  0  0  0  0
   -3.0602    0.2099   -2.7715 H   0  0  0  0  0  0  0  0  0  0  0  0
   -4.2706   -1.0222   -3.2374 H   0  0  0  0  0  0  0  0  0  0  0  0
   -4.0029    0.4015   -4.2565 H   0  0  0  0  0  0  0  0  0  0  0  0
   -8.9245    1.4291    1.9159 H   0  0  0  0  0  0  0  0  0  0  0  0
   -8.8998   -1.2887    1.4131 H   0  0  0  0  0  0  0  0  0  0  0  0
    7.2593   -0.4414    2.5705 H   0  0  0  0  0  0  0  0  0  0  0  0
    8.7707    0.5039    2.4434 H   0  0  0  0  0  0  0  0  0  0  0  0
    7.2131    1.3552    2.6517 H   0  0  0  0  0  0  0  0  0  0  0  0
  1 15  1  0  0  0  0
  1 20  1  0  0  0  0
  2 21  1  0  0  0  0
  2 26  1  0  0  0  0
  3 24  1  0  0  0  0
  3 28  1  0  0  0  0
  4 17  2  0  0  0  0
  5 23  1  0  0  0  0
  5 40  1  0  0  0  0
  6 22  2  0  0  0  0
  7 23  2  0  0  0  0
  8 25  1  0  0  0  0
  8 30  1  0  0  0  0
  9 15  1  0  0  0  0
  9 17  1  0  0  0  0
  9 18  1  0  0  0  0
 10 16  1  0  0  0  0
 10 22  1  0  0  0  0
 10 36  1  0  0  0  0
 11 13  1  0  0  0  0
 11 26  1  0  0  0  0
 11 31  1  0  0  0  0
 12 14  1  0  0  0  0
 12 26  2  0  0  0  0
 13 14  2  0  0  0  0
 15 16  1  0  0  0  0
 15 32  1  0  0  0  0
 16 17  1  0  0  0  0
 16 33  1  0  0  0  0
 18 19  2  0  0  0  0
 18 23  1  0  0  0  0
 19 20  1  0  0  0  0
 19 21  1  0  0  0  0
 20 34  1  0  0  0  0
 20 35  1  0  0  0  0
 21 37  1  0  0  0  0
 21 38  1  0  0  0  0
 22 24  1  0  0  0  0
 24 25  1  0  0  0  0
 24 39  1  0  0  0  0
 25 27  2  0  0  0  0
 27 29  1  0  0  0  0
 27 41  1  0  0  0  0
 28 42  1  0  0  0  0
 28 43  1  0  0  0  0
 28 44  1  0  0  0  0
 29 30  2  0  0  0  0
 29 45  1  0  0  0  0
 30 46  1  0  0  0  0
 31 47  1  0  0  0  0
 31 48  1  0  0  0  0
 31 49  1  0  0  0  0
M  END
> <PUBCHEM_COMPOUND_CID>
70605955

> <PUBCHEM_CONFORMER_RMSD>
1

> <PUBCHEM_CONFORMER_DIVERSEORDER>
1
122
212
188
58
117
72
154
214
9
74
47
197
120
89
118
213
226
3
222
103
198
123
178
129
48
229
27
235
67
209
121
173
94
4
210
228
199
128
196
34
193
8
24
180
144
102
76
159
131
191
177
44
112
189
110
181
148
124
140
105
215
162
33
153
98
211
40
101
17
23
231
100
152
61
26
97
166
185
111
164
151
114
217
75
18
21
106
53
208
22
145
187
71
52
200
43
116
132
220
221
31
95
85
65
204
160
239
12
49
218
194
79
232
184
41
63
161
234
25
182
236
119
219
88
203
13
207
29
155
157
149
205
32
59
183
35
99
135
142
179
15
169
224
19
126
165
83
195
51
93
168
192
82
167
115
11
134
240
136
233
147
68
96
190
170
156
230
45
137
176
7
57
86
206
125
225
38
150
62
141
163
20
109
16
238
30
237
127
223
87
202
174
113
81
77
46
10
55
146
73
133
5
104
6
186
54
78
39
158
66
50
130
227
139
2
70
90
108
107
60
171
91
28
84
14
175
216
42
92
36
143
80
64
37
138
69
56
201
172

> <PUBCHEM_MMFF94_PARTIAL_CHARGES>
35
1 -0.45
10 -0.65
11 0.31
12 -0.34
13 -0.42
15 0.44
16 0.28
17 0.58
18 0.12
19 -0.28
2 -0.29
20 0.37
21 0.37
22 0.57
23 0.71
24 0.47
25 -0.04
26 0.24
27 -0.15
28 0.23
29 -0.15
3 -0.46
30 -0.01
31 0.26
36 0.37
4 -0.57
40 0.5
41 0.15
45 0.15
46 0.15
5 -0.65
6 -0.57
7 -0.57
8 -0.28
9 -0.39

> <PUBCHEM_EFFECTIVE_ROTOR_COUNT>
9.6

> <PUBCHEM_PHARMACOPHORE_FEATURES>
13
1 10 donor
1 28 hydrophobe
1 4 acceptor
1 5 acceptor
1 6 acceptor
1 7 acceptor
1 8 acceptor
3 11 12 26 cation
3 5 7 23 anion
4 9 15 16 17 rings
5 11 12 13 14 26 rings
5 8 25 27 29 30 rings
6 1 9 15 18 19 20 rings

> <PUBCHEM_HEAVY_ATOM_COUNT>
31

> <PUBCHEM_ATOM_DEF_STEREO_COUNT>
1

> <PUBCHEM_ATOM_UDEF_STEREO_COUNT>
2

> <PUBCHEM_BOND_DEF_STEREO_COUNT>
0

> <PUBCHEM_BOND_UDEF_STEREO_COUNT>
0

> <PUBCHEM_ISOTOPIC_ATOM_COUNT>
0

> <PUBCHEM_COMPONENT_COUNT>
1

> <PUBCHEM_CACTVS_TAUTO_COUNT>
4

> <PUBCHEM_CONFORMER_ID>
04355C8300000001

> <PUBCHEM_MMFF94_ENERGY>
63.0948

> <PUBCHEM_FEATURE_SELFOVERLAP>
66.287

> <PUBCHEM_SHAPE_FINGERPRINT>
10 15 17385445427212150195
10050765 1 18053952749049800784
11135926 11 18271798021514459119
12838862 33 18341600516955878552
13782708 43 17386571242053759595
14118638 360 18201440216929727457
14251764 18 17894912935956164681
14251764 46 18408326597076514888
14849402 71 18410014351219419889
15301273 46 10809343368820245212
15840311 113 17458634453956078492
15849732 13 13479133505936003712
16120349 18 13262686971545120510
18608769 82 18335144232734491139
21033648 29 17987784346091827952
22311459 1 18409450293427894232
249057 25 13551481319699690871
3178227 256 18409729582166082888
335352 9 18409171047428297636
4093350 32 17775288227397580878
4112364 45 17386017229689430796
5283156 175 12967137099195099464
5758199 1 18273215291775672170

> <PUBCHEM_SHAPE_MULTIPOLES>
590.28
25.82
1.94
1.77
8.69
1.18
1.23
-8.05
-4.5
0.47
-0.23
-1.54
-0.18
0.17

> <PUBCHEM_SHAPE_SELFOVERLAP>
1216.49

> <PUBCHEM_SHAPE_VOLUME>
341.1

> <PUBCHEM_COORDINATE_TYPE>
2
5
10

$$$$
