15882869
  Mrv15b2304152517313D          

 52 54  0  0  1  0            999 V2000
    0.4633    1.8868   -0.8624 S   0  0  0  0  0  0  0  0  0  0  0  0
    0.3085   -0.8331    0.5776 N   0  0  0  0  0  0  0  0  0  0  0  0
    1.8883   -4.7148    4.3964 N   0  0  1  0  0  0  0  0  0  0  0  0
   -0.4814   -2.2117    2.8267 C   0  0  2  0  0  0  0  0  0  0  0  0
    0.2933   -2.9213    3.9389 C   0  0  2  0  0  0  0  0  0  0  0  0
    0.5108   -1.6068    1.8151 C   0  0  1  0  0  0  0  0  0  0  0  0
    1.1480   -4.0367    3.3336 C   0  0  2  0  0  0  0  0  0  0  0  0
   -1.3360   -1.0964    3.4320 C   0  0  0  0  0  0  0  0  0  0  0  0
    1.5327   -0.5350   -0.0610 C   0  0  0  0  0  0  0  0  0  0  0  0
   -0.9230   -0.2432    0.2513 C   0  0  0  0  0  0  0  0  0  0  0  0
    2.7050   -5.7806    3.8180 C   0  0  2  0  0  0  0  0  0  0  0  0
    2.7534   -3.7531    5.0777 C   0  0  2  0  0  0  0  0  0  0  0  0
    1.7852    0.7431   -0.6351 C   0  0  0  0  0  0  0  0  0  0  0  0
   -0.9835    1.0845   -0.2459 C   0  0  0  0  0  0  0  0  0  0  0  0
    2.6591   -1.4276   -0.0132 C   0  0  0  0  0  0  0  0  0  0  0  0
   -2.1583   -0.8718    0.5867 C   0  0  0  0  0  0  0  0  0  0  0  0
    1.7996   -6.7869    3.1049 C   0  0  0  0  0  0  0  0  0  0  0  0
    3.5281   -4.4628    6.1900 C   0  0  0  0  0  0  0  0  0  0  0  0
    3.1056    1.1482   -0.9506 C   0  0  0  0  0  0  0  0  0  0  0  0
   -2.2156    1.7911   -0.1994 C   0  0  0  0  0  0  0  0  0  0  0  0
    3.9619   -1.0354   -0.3127 C   0  0  0  0  0  0  0  0  0  0  0  0
   -3.3528   -0.1564    0.7227 C   0  0  0  0  0  0  0  0  0  0  0  0
    4.1894    0.2670   -0.7720 C   0  0  0  0  0  0  0  0  0  0  0  0
   -3.3808    1.1826    0.3067 C   0  0  0  0  0  0  0  0  0  0  0  0
   -1.1264   -2.9287    2.3187 H   0  0  0  0  0  0  0  0  0  0  0  0
   -0.4086   -3.3493    4.6546 H   0  0  0  0  0  0  0  0  0  0  0  0
    0.9383   -2.2044    4.4469 H   0  0  0  0  0  0  0  0  0  0  0  0
    1.3563   -2.2827    1.6868 H   0  0  0  0  0  0  0  0  0  0  0  0
    1.0476   -0.8823    2.4275 H   0  0  0  0  0  0  0  0  0  0  0  0
    0.5030   -4.7537    2.8256 H   0  0  0  0  0  0  0  0  0  0  0  0
    1.8500   -3.6088    2.6179 H   0  0  0  0  0  0  0  0  0  0  0  0
   -1.8880   -0.5908    2.6396 H   0  0  0  0  0  0  0  0  0  0  0  0
   -2.0380   -1.5243    4.1477 H   0  0  0  0  0  0  0  0  0  0  0  0
   -0.6910   -0.3794    3.9400 H   0  0  0  0  0  0  0  0  0  0  0  0
    3.2569   -6.2861    4.6103 H   0  0  0  0  0  0  0  0  0  0  0  0
    3.4069   -5.3526    3.1023 H   0  0  0  0  0  0  0  0  0  0  0  0
    2.1445   -2.9585    5.5090 H   0  0  0  0  0  0  0  0  0  0  0  0
    3.4554   -3.3252    4.3620 H   0  0  0  0  0  0  0  0  0  0  0  0
    2.5659   -2.3765    0.3518 H   0  0  0  0  0  0  0  0  0  0  0  0
   -2.2045   -1.8600    0.8242 H   0  0  0  0  0  0  0  0  0  0  0  0
    2.4085   -7.5815    2.6737 H   0  0  0  0  0  0  0  0  0  0  0  0
    1.0976   -7.2149    3.8206 H   0  0  0  0  0  0  0  0  0  0  0  0
    1.2477   -6.2814    2.3125 H   0  0  0  0  0  0  0  0  0  0  0  0
    4.1731   -3.7458    6.6980 H   0  0  0  0  0  0  0  0  0  0  0  0
    2.8262   -4.8907    6.9057 H   0  0  0  0  0  0  0  0  0  0  0  0
    4.1370   -5.2574    5.7587 H   0  0  0  0  0  0  0  0  0  0  0  0
    3.2973    2.0894   -1.3029 H   0  0  0  0  0  0  0  0  0  0  0  0
   -2.2715    2.7483   -0.5471 H   0  0  0  0  0  0  0  0  0  0  0  0
    4.7374   -1.6939   -0.1646 H   0  0  0  0  0  0  0  0  0  0  0  0
   -4.1739   -0.6088    1.1405 H   0  0  0  0  0  0  0  0  0  0  0  0
    5.1419    0.5542   -0.9905 H   0  0  0  0  0  0  0  0  0  0  0  0
   -4.2757    1.6800    0.3402 H   0  0  0  0  0  0  0  0  0  0  0  0
  1 13  1  0  0  0  0
  1 14  1  0  0  0  0
  2  6  1  0  0  0  0
  2  9  1  0  0  0  0
  2 10  1  0  0  0  0
  3  7  1  0  0  0  0
  3 11  1  0  0  0  0
  3 12  1  0  0  0  0
  4  5  1  0  0  0  0
  4  6  1  0  0  0  0
  4  8  1  0  0  0  0
  4 25  1  0  0  0  0
  5  7  1  0  0  0  0
  5 26  1  0  0  0  0
  5 27  1  0  0  0  0
  6 28  1  0  0  0  0
  6 29  1  0  0  0  0
  7 30  1  0  0  0  0
  7 31  1  0  0  0  0
  8 32  1  0  0  0  0
  8 33  1  0  0  0  0
  8 34  1  0  0  0  0
  9 13  1  0  0  0  0
  9 15  2  0  0  0  0
 10 14  1  0  0  0  0
 10 16  2  0  0  0  0
 11 17  1  0  0  0  0
 11 35  1  0  0  0  0
 11 36  1  0  0  0  0
 12 18  1  0  0  0  0
 12 37  1  0  0  0  0
 12 38  1  0  0  0  0
 13 19  2  0  0  0  0
 14 20  2  0  0  0  0
 15 21  1  0  0  0  0
 15 39  1  0  0  0  0
 16 22  1  0  0  0  0
 16 40  1  0  0  0  0
 17 41  1  0  0  0  0
 17 42  1  0  0  0  0
 17 43  1  0  0  0  0
 18 44  1  0  0  0  0
 18 45  1  0  0  0  0
 18 46  1  0  0  0  0
 19 23  1  0  0  0  0
 19 47  1  0  0  0  0
 20 24  1  0  0  0  0
 20 48  1  0  0  0  0
 21 23  2  0  0  0  0
 21 49  1  0  0  0  0
 22 24  2  0  0  0  0
 22 50  1  0  0  0  0
 23 51  1  0  0  0  0
 24 52  1  0  0  0  0
M  END
