@<TRIPOS>MOLECULE
lig
 52 54 0 0 0
SMALL
GASTEIGER

@<TRIPOS>ATOM
      1 S           0.4633    1.8868   -0.8624 S.3     1  UNL11      -0.0857
      2 N           0.3085   -0.8331    0.5776 N.pl3   1  UNL11      -0.2981
      3 N           1.8883   -4.7148    4.3964 N.3     1  UNL11      -0.3028
      4 C          -0.4814   -2.2117    2.8267 C.3     1  UNL11      -0.0266
      5 C           0.2933   -2.9213    3.9389 C.3     1  UNL11      -0.0362
      6 C           0.5108   -1.6068    1.8151 C.3     1  UNL11       0.0200
      7 C           1.1480   -4.0367    3.3336 C.3     1  UNL11      -0.0008
      8 C          -1.3360   -1.0964    3.4320 C.3     1  UNL11      -0.0609
      9 C           1.5327   -0.5350   -0.0610 C.ar    1  UNL11       0.0479
     10 C          -0.9230   -0.2432    0.2513 C.ar    1  UNL11       0.0479
     11 C           2.7050   -5.7806    3.8180 C.3     1  UNL11      -0.0040
     12 C           2.7534   -3.7531    5.0777 C.3     1  UNL11      -0.0040
     13 C           1.7852    0.7431   -0.6351 C.ar    1  UNL11       0.0341
     14 C          -0.9835    1.0845   -0.2459 C.ar    1  UNL11       0.0341
     15 C           2.6591   -1.4276   -0.0132 C.ar    1  UNL11      -0.0393
     16 C          -2.1583   -0.8718    0.5867 C.ar    1  UNL11      -0.0393
     17 C           1.7996   -6.7869    3.1049 C.3     1  UNL11      -0.0524
     18 C           3.5281   -4.4628    6.1900 C.3     1  UNL11      -0.0524
     19 C           3.1056    1.1482   -0.9506 C.ar    1  UNL11      -0.0462
     20 C          -2.2156    1.7911   -0.1994 C.ar    1  UNL11      -0.0462
     21 C           3.9619   -1.0354   -0.3127 C.ar    1  UNL11      -0.0599
     22 C          -3.3528   -0.1564    0.7227 C.ar    1  UNL11      -0.0599
     23 C           4.1894    0.2670   -0.7720 C.ar    1  UNL11      -0.0606
     24 C          -3.3808    1.1826    0.3067 C.ar    1  UNL11      -0.0606
     25 H          -1.1264   -2.9287    2.3187 H       1  UNL11       0.0314
     26 H          -0.4086   -3.3493    4.6546 H       1  UNL11       0.0281
     27 H           0.9383   -2.2044    4.4469 H       1  UNL11       0.0281
     28 H           1.3563   -2.2827    1.6868 H       1  UNL11       0.0470
     29 H           1.0476   -0.8823    2.4275 H       1  UNL11       0.0470
     30 H           0.5030   -4.7537    2.8256 H       1  UNL11       0.0427
     31 H           1.8500   -3.6088    2.6179 H       1  UNL11       0.0427
     32 H          -1.8880   -0.5908    2.6396 H       1  UNL11       0.0233
     33 H          -2.0380   -1.5243    4.1477 H       1  UNL11       0.0233
     34 H          -0.6910   -0.3794    3.9400 H       1  UNL11       0.0233
     35 H           3.2569   -6.2861    4.6103 H       1  UNL11       0.0424
     36 H           3.4069   -5.3526    3.1023 H       1  UNL11       0.0424
     37 H           2.1445   -2.9585    5.5090 H       1  UNL11       0.0424
     38 H           3.4554   -3.3252    4.3620 H       1  UNL11       0.0424
     39 H           2.5659   -2.3765    0.3518 H       1  UNL11       0.0636
     40 H          -2.2045   -1.8600    0.8242 H       1  UNL11       0.0636
     41 H           2.4085   -7.5815    2.6737 H       1  UNL11       0.0242
     42 H           1.0976   -7.2149    3.8206 H       1  UNL11       0.0242
     43 H           1.2477   -6.2814    2.3125 H       1  UNL11       0.0242
     44 H           4.1731   -3.7458    6.6980 H       1  UNL11       0.0242
     45 H           2.8262   -4.8907    6.9057 H       1  UNL11       0.0242
     46 H           4.1370   -5.2574    5.7587 H       1  UNL11       0.0242
     47 H           3.2973    2.0894   -1.3029 H       1  UNL11       0.0629
     48 H          -2.2715    2.7483   -0.5471 H       1  UNL11       0.0629
     49 H           4.7374   -1.6939   -0.1646 H       1  UNL11       0.0618
     50 H          -4.1739   -0.6088    1.1405 H       1  UNL11       0.0618
     51 H           5.1419    0.5542   -0.9905 H       1  UNL11       0.0618
     52 H          -4.2757    1.6800    0.3402 H       1  UNL11       0.0618
@<TRIPOS>BOND
     1     1    13    1
     2     1    14    1
     3     2     6    1
     4     2     9    1
     5     2    10    1
     6     3     7    1
     7     3    11    1
     8     3    12    1
     9     4     5    1
    10     4     6    1
    11     4     8    1
    12     4    25    1
    13     5     7    1
    14     5    26    1
    15     5    27    1
    16     6    28    1
    17     6    29    1
    18     7    30    1
    19     7    31    1
    20     8    32    1
    21     8    33    1
    22     8    34    1
    23     9    13   ar
    24     9    15   ar
    25    10    14   ar
    26    10    16   ar
    27    11    17    1
    28    11    35    1
    29    11    36    1
    30    12    18    1
    31    12    37    1
    32    12    38    1
    33    13    19   ar
    34    14    20   ar
    35    15    21   ar
    36    15    39    1
    37    16    22   ar
    38    16    40    1
    39    17    41    1
    40    17    42    1
    41    17    43    1
    42    18    44    1
    43    18    45    1
    44    18    46    1
    45    19    23   ar
    46    19    47    1
    47    20    24   ar
    48    20    48    1
    49    21    23   ar
    50    21    49    1
    51    22    24   ar
    52    22    50    1
    53    23    51    1
    54    24    52    1
