lig
 OpenBabel04152517313D

 52 54  0  0  1  0  0  0  0  0999 V2000
   -3.1689   -1.7829    0.7706 S   0  0  0  0  0  0  0  0  0  0  0  0
   -1.0073    0.2367   -0.1850 N   0  0  0  0  0  0  0  0  0  0  0  0
    3.6906    0.6925   -0.1252 N   0  0  0  0  0  0  0  0  0  0  0  0
    0.9154    1.2078    1.0647 C   0  0  2  0  0  0  0  0  0  0  0  0
    2.1075    2.1903    1.0548 C   0  0  0  0  0  0  0  0  0  0  0  0
    0.0589    1.2464   -0.2111 C   0  0  0  0  0  0  0  0  0  0  0  0
    3.0910    2.0209   -0.1068 C   0  0  0  0  0  0  0  0  0  0  0  0
    0.0556    1.4513    2.3114 C   0  0  0  0  0  0  0  0  0  0  0  0
   -0.6156   -1.1261   -0.1786 C   0  0  0  0  0  0  0  0  0  0  0  0
   -2.3464    0.6998   -0.2351 C   0  0  0  0  0  0  0  0  0  0  0  0
    4.5791    0.5432   -1.2794 C   0  0  0  0  0  0  0  0  0  0  0  0
    4.4252    0.4407    1.1160 C   0  0  0  0  0  0  0  0  0  0  0  0
   -1.5148   -2.1382    0.2119 C   0  0  0  0  0  0  0  0  0  0  0  0
   -3.4171   -0.1315    0.1495 C   0  0  0  0  0  0  0  0  0  0  0  0
    0.6702   -1.5366   -0.5936 C   0  0  0  0  0  0  0  0  0  0  0  0
   -2.6740    1.9915   -0.7022 C   0  0  0  0  0  0  0  0  0  0  0  0
    3.8373    0.8003   -2.5801 C   0  0  0  0  0  0  0  0  0  0  0  0
    4.9996   -0.9656    1.1384 C   0  0  0  0  0  0  0  0  0  0  0  0
   -1.1236   -3.4889    0.2093 C   0  0  0  0  0  0  0  0  0  0  0  0
   -4.7441    0.3301    0.0905 C   0  0  0  0  0  0  0  0  0  0  0  0
    1.0522   -2.8809   -0.5991 C   0  0  0  0  0  0  0  0  0  0  0  0
   -3.9951    2.4436   -0.7634 C   0  0  0  0  0  0  0  0  0  0  0  0
    0.1554   -3.8578   -0.1940 C   0  0  0  0  0  0  0  0  0  0  0  0
   -5.0309    1.6131   -0.3636 C   0  0  0  0  0  0  0  0  0  0  0  0
    1.3426    0.2094    1.2019 H   0  0  0  0  0  0  0  0  0  0  0  0
    2.6229    2.1795    2.0218 H   0  0  0  0  0  0  0  0  0  0  0  0
    1.6994    3.2088    0.9805 H   0  0  0  0  0  0  0  0  0  0  0  0
    0.6559    1.1219   -1.1206 H   0  0  0  0  0  0  0  0  0  0  0  0
   -0.2919    2.2780   -0.2680 H   0  0  0  0  0  0  0  0  0  0  0  0
    2.5349    2.2387   -1.0222 H   0  0  0  0  0  0  0  0  0  0  0  0
    3.8648    2.7965   -0.0261 H   0  0  0  0  0  0  0  0  0  0  0  0
    0.6730    1.4409    3.2164 H   0  0  0  0  0  0  0  0  0  0  0  0
   -0.4474    2.4229    2.2603 H   0  0  0  0  0  0  0  0  0  0  0  0
   -0.7076    0.6772    2.4364 H   0  0  0  0  0  0  0  0  0  0  0  0
    4.9493   -0.4847   -1.3491 H   0  0  0  0  0  0  0  0  0  0  0  0
    5.4504    1.2071   -1.2152 H   0  0  0  0  0  0  0  0  0  0  0  0
    3.7610    0.4883    1.9837 H   0  0  0  0  0  0  0  0  0  0  0  0
    5.2275    1.1723    1.2741 H   0  0  0  0  0  0  0  0  0  0  0  0
    1.4093   -0.8287   -0.9520 H   0  0  0  0  0  0  0  0  0  0  0  0
   -1.9358    2.6812   -1.0976 H   0  0  0  0  0  0  0  0  0  0  0  0
    2.8821    0.2668   -2.6215 H   0  0  0  0  0  0  0  0  0  0  0  0
    3.6616    1.8652   -2.7604 H   0  0  0  0  0  0  0  0  0  0  0  0
    4.4429    0.4426   -3.4209 H   0  0  0  0  0  0  0  0  0  0  0  0
    4.2510   -1.7144    0.8570 H   0  0  0  0  0  0  0  0  0  0  0  0
    5.8726   -1.0722    0.4873 H   0  0  0  0  0  0  0  0  0  0  0  0
    5.3369   -1.2080    2.1527 H   0  0  0  0  0  0  0  0  0  0  0  0
   -1.8137   -4.2701    0.5219 H   0  0  0  0  0  0  0  0  0  0  0  0
   -5.5707   -0.3076    0.3978 H   0  0  0  0  0  0  0  0  0  0  0  0
    2.0499   -3.1588   -0.9263 H   0  0  0  0  0  0  0  0  0  0  0  0
   -4.2105    3.4402   -1.1379 H   0  0  0  0  0  0  0  0  0  0  0  0
    0.4475   -4.9034   -0.1955 H   0  0  0  0  0  0  0  0  0  0  0  0
   -6.0590    1.9589   -0.4105 H   0  0  0  0  0  0  0  0  0  0  0  0
  1 13  1  0  0  0  0
  1 14  1  0  0  0  0
  2  6  1  0  0  0  0
  2  9  1  0  0  0  0
  2 10  1  0  0  0  0
  3  7  1  0  0  0  0
  3 11  1  0  0  0  0
  3 12  1  0  0  0  0
  4  5  1  0  0  0  0
  4  6  1  0  0  0  0
  4  8  1  0  0  0  0
  4 25  1  1  0  0  0
  5  7  1  0  0  0  0
  5 26  1  0  0  0  0
  5 27  1  0  0  0  0
  6 28  1  0  0  0  0
  6 29  1  0  0  0  0
  7 30  1  0  0  0  0
  7 31  1  0  0  0  0
  8 32  1  0  0  0  0
  8 33  1  0  0  0  0
  8 34  1  0  0  0  0
  9 13  1  0  0  0  0
  9 15  2  0  0  0  0
 10 14  1  0  0  0  0
 10 16  2  0  0  0  0
 11 17  1  0  0  0  0
 11 35  1  0  0  0  0
 11 36  1  0  0  0  0
 12 18  1  0  0  0  0
 12 37  1  0  0  0  0
 12 38  1  0  0  0  0
 13 19  2  0  0  0  0
 14 20  2  0  0  0  0
 15 21  1  0  0  0  0
 15 39  1  0  0  0  0
 16 22  1  0  0  0  0
 16 40  1  0  0  0  0
 17 41  1  0  0  0  0
 17 42  1  0  0  0  0
 17 43  1  0  0  0  0
 18 44  1  0  0  0  0
 18 45  1  0  0  0  0
 18 46  1  0  0  0  0
 19 23  1  0  0  0  0
 19 47  1  0  0  0  0
 20 24  1  0  0  0  0
 20 48  1  0  0  0  0
 21 23  2  0  0  0  0
 21 49  1  0  0  0  0
 22 24  2  0  0  0  0
 22 50  1  0  0  0  0
 23 51  1  0  0  0  0
 24 52  1  0  0  0  0
M  END
