15882869
  Mrv15b2304152517302D          

 52 54  0  0  1  0            999 V2000
   -2.4431   -0.4423    0.0000 S   0  0  0  0  0  0  0  0  0  0  0  0
   -0.7931   -0.4423    0.0000 N   0  0  0  0  0  0  0  0  0  0  0  0
    2.5069    0.9866    0.0000 N   0  0  0  0  0  0  0  0  0  0  0  0
    0.4444    0.2721    0.0000 C   0  0  2  0  0  0  0  0  0  0  0  0
    1.2694    0.2721    0.0000 C   0  0  0  0  0  0  0  0  0  0  0  0
    0.0319   -0.4423    0.0000 C   0  0  0  0  0  0  0  0  0  0  0  0
    1.6819    0.9866    0.0000 C   0  0  0  0  0  0  0  0  0  0  0  0
    0.0319    0.9866    0.0000 C   0  0  0  0  0  0  0  0  0  0  0  0
   -1.2056   -1.1568    0.0000 C   0  0  0  0  0  0  0  0  0  0  0  0
   -1.2056    0.2721    0.0000 C   0  0  0  0  0  0  0  0  0  0  0  0
    2.9194    1.7011    0.0000 C   0  0  0  0  0  0  0  0  0  0  0  0
    2.9194    0.2721    0.0000 C   0  0  0  0  0  0  0  0  0  0  0  0
   -2.0306   -1.1568    0.0000 C   0  0  0  0  0  0  0  0  0  0  0  0
   -2.0306    0.2721    0.0000 C   0  0  0  0  0  0  0  0  0  0  0  0
   -0.7931   -1.8713    0.0000 C   0  0  0  0  0  0  0  0  0  0  0  0
   -0.7931    0.9866    0.0000 C   0  0  0  0  0  0  0  0  0  0  0  0
    3.7444    1.7011    0.0000 C   0  0  0  0  0  0  0  0  0  0  0  0
    2.5069   -0.4423    0.0000 C   0  0  0  0  0  0  0  0  0  0  0  0
   -2.4431   -1.8713    0.0000 C   0  0  0  0  0  0  0  0  0  0  0  0
   -2.4431    0.9866    0.0000 C   0  0  0  0  0  0  0  0  0  0  0  0
   -1.2056   -2.5858    0.0000 C   0  0  0  0  0  0  0  0  0  0  0  0
   -1.2056    1.7011    0.0000 C   0  0  0  0  0  0  0  0  0  0  0  0
   -2.0306   -2.5858    0.0000 C   0  0  0  0  0  0  0  0  0  0  0  0
   -2.0306    1.7011    0.0000 C   0  0  0  0  0  0  0  0  0  0  0  0
    0.8569   -0.4423    0.0000 H   0  0  0  0  0  0  0  0  0  0  0  0
    1.7997   -0.3599    0.0000 H   0  0  0  0  0  0  0  0  0  0  0  0
    2.0819    0.1289    0.0000 H   0  0  0  0  0  0  0  0  0  0  0  0
   -0.2502   -1.2176    0.0000 H   0  0  0  0  0  0  0  0  0  0  0  0
    0.3141   -1.2176    0.0000 H   0  0  0  0  0  0  0  0  0  0  0  0
    1.6340    1.8102    0.0000 H   0  0  0  0  0  0  0  0  0  0  0  0
    0.9927    1.4399    0.0000 H   0  0  0  0  0  0  0  0  0  0  0  0
    0.8569    0.9866    0.0000 H   0  0  0  0  0  0  0  0  0  0  0  0
    0.4444    1.7011    0.0000 H   0  0  0  0  0  0  0  0  0  0  0  0
   -0.3806    1.7011    0.0000 H   0  0  0  0  0  0  0  0  0  0  0  0
    2.8715    2.5247    0.0000 H   0  0  0  0  0  0  0  0  0  0  0  0
    2.2302    2.1544    0.0000 H   0  0  0  0  0  0  0  0  0  0  0  0
    3.6567   -0.0981    0.0000 H   0  0  0  0  0  0  0  0  0  0  0  0
    3.6567    0.6424    0.0000 H   0  0  0  0  0  0  0  0  0  0  0  0
   -0.1160   -2.3428    0.0000 H   0  0  0  0  0  0  0  0  0  0  0  0
   -0.3806    0.2721    0.0000 H   0  0  0  0  0  0  0  0  0  0  0  0
    3.7444    0.8761    0.0000 H   0  0  0  0  0  0  0  0  0  0  0  0
    4.5694    1.7011    0.0000 H   0  0  0  0  0  0  0  0  0  0  0  0
    3.7444    2.5261    0.0000 H   0  0  0  0  0  0  0  0  0  0  0  0
    2.0339   -1.1182    0.0000 H   0  0  0  0  0  0  0  0  0  0  0  0
    2.8773   -1.1795    0.0000 H   0  0  0  0  0  0  0  0  0  0  0  0
    3.3316   -0.4663    0.0000 H   0  0  0  0  0  0  0  0  0  0  0  0
   -3.2681   -1.8713    0.0000 H   0  0  0  0  0  0  0  0  0  0  0  0
   -3.2681    0.9866    0.0000 H   0  0  0  0  0  0  0  0  0  0  0  0
   -0.7931   -3.3002    0.0000 H   0  0  0  0  0  0  0  0  0  0  0  0
   -1.2056    2.5261    0.0000 H   0  0  0  0  0  0  0  0  0  0  0  0
   -2.4431   -3.3002    0.0000 H   0  0  0  0  0  0  0  0  0  0  0  0
   -2.4431    2.4155    0.0000 H   0  0  0  0  0  0  0  0  0  0  0  0
  1 13  1  0  0  0  0
  1 14  1  0  0  0  0
  2  6  1  0  0  0  0
  2  9  1  0  0  0  0
  2 10  1  0  0  0  0
  3  7  1  0  0  0  0
  3 11  1  0  0  0  0
  3 12  1  0  0  0  0
  4  5  1  0  0  0  0
  4  6  1  0  0  0  0
  4  8  1  1  0  0  0
  4 25  1  1  0  0  0
  5  7  1  0  0  0  0
  5 26  1  0  0  0  0
  5 27  1  0  0  0  0
  6 28  1  0  0  0  0
  6 29  1  0  0  0  0
  7 30  1  0  0  0  0
  7 31  1  0  0  0  0
  8 32  1  0  0  0  0
  8 33  1  0  0  0  0
  8 34  1  0  0  0  0
  9 13  1  0  0  0  0
  9 15  2  0  0  0  0
 10 14  1  0  0  0  0
 10 16  2  0  0  0  0
 11 17  1  0  0  0  0
 11 35  1  0  0  0  0
 11 36  1  0  0  0  0
 12 18  1  0  0  0  0
 12 37  1  0  0  0  0
 12 38  1  0  0  0  0
 13 19  2  0  0  0  0
 14 20  2  0  0  0  0
 15 21  1  0  0  0  0
 15 39  1  0  0  0  0
 16 22  1  0  0  0  0
 16 40  1  0  0  0  0
 17 41  1  0  0  0  0
 17 42  1  0  0  0  0
 17 43  1  0  0  0  0
 18 44  1  0  0  0  0
 18 45  1  0  0  0  0
 18 46  1  0  0  0  0
 19 23  1  0  0  0  0
 19 47  1  0  0  0  0
 20 24  1  0  0  0  0
 20 48  1  0  0  0  0
 21 23  2  0  0  0  0
 21 49  1  0  0  0  0
 22 24  2  0  0  0  0
 22 50  1  0  0  0  0
 23 51  1  0  0  0  0
 24 52  1  0  0  0  0
M  END
