57232718
  Mrv15b2304112506203D          

 60 63  0  0  1  0            999 V2000
   -1.3465    6.7401    0.2493 S   0  0  0  0  0  0  0  0  0  0  0  0
   -8.1351   -0.7127    3.2092 F   0  0  0  0  0  0  0  0  0  0  0  0
   -6.4470   -2.1533    3.5043 F   0  0  0  0  0  0  0  0  0  0  0  0
   -8.5478   -2.9094    3.3380 F   0  0  0  0  0  0  0  0  0  0  0  0
   -4.3339    2.8744    0.4162 N   0  0  1  0  0  0  0  0  0  0  0  0
   -1.4911    4.6490    2.4248 N   0  0  2  0  0  0  0  0  0  0  0  0
   -2.1948    4.2128    1.1660 C   0  0  1  0  0  0  0  0  0  0  0  0
   -3.4742    3.3860    1.5149 C   0  0  1  0  0  0  0  0  0  0  0  0
   -3.5426    2.0145   -0.5121 C   0  0  2  0  0  0  0  0  0  0  0  0
   -5.6342    2.2799    0.9002 C   0  0  2  0  0  0  0  0  0  0  0  0
   -4.4571    1.7322   -1.7256 C   0  0  1  0  0  0  0  0  0  0  0  0
   -6.4588    1.7052   -0.3150 C   0  0  1  0  0  0  0  0  0  0  0  0
   -5.5465    0.9033   -1.1887 C   0  0  0  0  0  0  0  0  0  0  0  0
   -2.5136    5.3253    0.1179 C   0  0  1  0  0  0  0  0  0  0  0  0
   -1.7424    6.0109    2.9752 C   0  0  1  0  0  0  0  0  0  0  0  0
   -1.1358    7.0942    2.0497 C   0  0  2  0  0  0  0  0  0  0  0  0
   -5.5741   -0.4596   -1.4083 C   0  0  0  0  0  0  0  0  0  0  0  0
   -0.0516    4.4418    2.2752 C   0  0  0  0  0  0  0  0  0  0  0  0
   -6.5048   -1.2919   -0.7066 C   0  0  0  0  0  0  0  0  0  0  0  0
   -4.6140   -1.1339   -2.2731 C   0  0  0  0  0  0  0  0  0  0  0  0
   -6.6365   -1.2033    0.7333 C   0  0  0  0  0  0  0  0  0  0  0  0
   -7.2633   -2.2907   -1.4201 C   0  0  0  0  0  0  0  0  0  0  0  0
   -3.8674   -2.2695   -1.7772 C   0  0  0  0  0  0  0  0  0  0  0  0
   -4.3543   -0.7077   -3.6372 C   0  0  0  0  0  0  0  0  0  0  0  0
   -7.5057   -2.0749    1.4503 C   0  0  0  0  0  0  0  0  0  0  0  0
   -8.1192   -3.1929   -0.7158 C   0  0  0  0  0  0  0  0  0  0  0  0
   -2.9060   -2.9482   -2.5966 C   0  0  0  0  0  0  0  0  0  0  0  0
   -3.3731   -1.3334   -4.4706 C   0  0  0  0  0  0  0  0  0  0  0  0
   -8.2206   -3.0649    0.7071 C   0  0  0  0  0  0  0  0  0  0  0  0
   -2.6829   -2.4573   -3.9225 C   0  0  0  0  0  0  0  0  0  0  0  0
   -7.6613   -1.9608    2.8975 C   0  0  1  0  0  0  0  0  0  0  0  0
   -1.5101    3.5023    0.6860 H   0  0  0  0  0  0  0  0  0  0  0  0
   -4.0851    3.9442    2.2244 H   0  0  0  0  0  0  0  0  0  0  0  0
   -3.1258    2.5229    2.0820 H   0  0  0  0  0  0  0  0  0  0  0  0
   -3.2965    1.0754   -0.0165 H   0  0  0  0  0  0  0  0  0  0  0  0
   -2.6344    2.5485   -0.7913 H   0  0  0  0  0  0  0  0  0  0  0  0
   -6.2194    3.0484    1.4053 H   0  0  0  0  0  0  0  0  0  0  0  0
   -5.3874    1.4667    1.5828 H   0  0  0  0  0  0  0  0  0  0  0  0
   -4.8652    2.6713   -2.0991 H   0  0  0  0  0  0  0  0  0  0  0  0
   -3.8762    1.1493   -2.4403 H   0  0  0  0  0  0  0  0  0  0  0  0
   -7.2588    1.0660    0.0585 H   0  0  0  0  0  0  0  0  0  0  0  0
   -6.7979    2.5699   -0.8854 H   0  0  0  0  0  0  0  0  0  0  0  0
   -3.5335    5.6808    0.2643 H   0  0  0  0  0  0  0  0  0  0  0  0
   -2.5006    4.9132   -0.8911 H   0  0  0  0  0  0  0  0  0  0  0  0
   -2.8163    6.1726    3.0686 H   0  0  0  0  0  0  0  0  0  0  0  0
   -1.2453    6.1379    3.9369 H   0  0  0  0  0  0  0  0  0  0  0  0
   -1.5792    8.0620    2.2840 H   0  0  0  0  0  0  0  0  0  0  0  0
   -0.0622    7.1634    2.2246 H   0  0  0  0  0  0  0  0  0  0  0  0
    0.4575    4.7573    3.1859 H   0  0  0  0  0  0  0  0  0  0  0  0
    0.1466    3.3851    2.0957 H   0  0  0  0  0  0  0  0  0  0  0  0
    0.3143    5.0284    1.4326 H   0  0  0  0  0  0  0  0  0  0  0  0
   -6.0968   -0.5039    1.2432 H   0  0  0  0  0  0  0  0  0  0  0  0
   -7.1880   -2.3533   -2.4354 H   0  0  0  0  0  0  0  0  0  0  0  0
   -4.0283   -2.5946   -0.8239 H   0  0  0  0  0  0  0  0  0  0  0  0
   -4.8938    0.0701   -4.0171 H   0  0  0  0  0  0  0  0  0  0  0  0
   -8.6452   -3.9106   -1.2144 H   0  0  0  0  0  0  0  0  0  0  0  0
   -2.3955   -3.7580   -2.2445 H   0  0  0  0  0  0  0  0  0  0  0  0
   -3.1760   -0.9927   -5.4117 H   0  0  0  0  0  0  0  0  0  0  0  0
   -8.8298   -3.7084    1.2124 H   0  0  0  0  0  0  0  0  0  0  0  0
   -1.9958   -2.9347   -4.5059 H   0  0  0  0  0  0  0  0  0  0  0  0
  1 14  1  0  0  0  0
  1 16  1  0  0  0  0
  2 31  1  0  0  0  0
  3 31  1  0  0  0  0
  4 31  1  0  0  0  0
  5  8  1  0  0  0  0
  5  9  1  0  0  0  0
  5 10  1  0  0  0  0
  6  7  1  0  0  0  0
  6 15  1  0  0  0  0
  6 18  1  0  0  0  0
  7  8  1  0  0  0  0
  7 14  1  0  0  0  0
  7 32  1  0  0  0  0
  8 33  1  0  0  0  0
  8 34  1  0  0  0  0
  9 11  1  0  0  0  0
  9 35  1  0  0  0  0
  9 36  1  0  0  0  0
 10 12  1  0  0  0  0
 10 37  1  0  0  0  0
 10 38  1  0  0  0  0
 11 13  1  0  0  0  0
 11 39  1  0  0  0  0
 11 40  1  0  0  0  0
 12 13  1  0  0  0  0
 12 41  1  0  0  0  0
 12 42  1  0  0  0  0
 13 17  2  0  0  0  0
 14 43  1  0  0  0  0
 14 44  1  0  0  0  0
 15 16  1  0  0  0  0
 15 45  1  0  0  0  0
 15 46  1  0  0  0  0
 16 47  1  0  0  0  0
 16 48  1  0  0  0  0
 17 19  1  0  0  0  0
 17 20  1  0  0  0  0
 18 49  1  0  0  0  0
 18 50  1  0  0  0  0
 18 51  1  0  0  0  0
 19 21  2  0  0  0  0
 19 22  1  0  0  0  0
 20 23  2  0  0  0  0
 20 24  1  0  0  0  0
 21 25  1  0  0  0  0
 21 52  1  0  0  0  0
 22 26  2  0  0  0  0
 22 53  1  0  0  0  0
 23 27  1  0  0  0  0
 23 54  1  0  0  0  0
 24 28  2  0  0  0  0
 24 55  1  0  0  0  0
 25 29  2  0  0  0  0
 25 31  1  0  0  0  0
 26 29  1  0  0  0  0
 26 56  1  0  0  0  0
 27 30  2  0  0  0  0
 27 57  1  0  0  0  0
 28 30  1  0  0  0  0
 28 58  1  0  0  0  0
 29 59  1  0  0  0  0
 30 60  1  0  0  0  0
M  END
