@<TRIPOS>MOLECULE
lig
 60 63 0 0 0
SMALL
GASTEIGER

@<TRIPOS>ATOM
      1 S          -1.3465    6.7401    0.2493 S.3     1  UNL11      -0.1579
      2 F          -8.1351   -0.7127    3.2092 F       1  UNL11      -0.1659
      3 F          -6.4470   -2.1533    3.5043 F       1  UNL11      -0.1659
      4 F          -8.5478   -2.9094    3.3380 F       1  UNL11      -0.1659
      5 N          -4.3339    2.8744    0.4162 N.3     1  UNL11      -0.3002
      6 N          -1.4911    4.6490    2.4248 N.3     1  UNL11      -0.2996
      7 C          -2.1948    4.2128    1.1660 C.3     1  UNL11       0.0318
      8 C          -3.4742    3.3860    1.5149 C.3     1  UNL11       0.0153
      9 C          -3.5426    2.0145   -0.5121 C.3     1  UNL11       0.0027
     10 C          -5.6342    2.2799    0.9002 C.3     1  UNL11       0.0027
     11 C          -4.4571    1.7322   -1.7256 C.3     1  UNL11      -0.0180
     12 C          -6.4588    1.7052   -0.3150 C.3     1  UNL11      -0.0180
     13 C          -5.5465    0.9033   -1.1887 C.2     1  UNL11      -0.0589
     14 C          -2.5136    5.3253    0.1179 C.3     1  UNL11       0.0105
     15 C          -1.7424    6.0109    2.9752 C.3     1  UNL11       0.0080
     16 C          -1.1358    7.0942    2.0497 C.3     1  UNL11       0.0065
     17 C          -5.5741   -0.4596   -1.4083 C.2     1  UNL11      -0.0114
     18 C          -0.0516    4.4418    2.2752 C.3     1  UNL11      -0.0124
     19 C          -6.5048   -1.2919   -0.7066 C.ar    1  UNL11      -0.0168
     20 C          -4.6140   -1.1339   -2.2731 C.ar    1  UNL11      -0.0174
     21 C          -6.6365   -1.2033    0.7333 C.ar    1  UNL11      -0.0424
     22 C          -7.2633   -2.2907   -1.4201 C.ar    1  UNL11      -0.0540
     23 C          -3.8674   -2.2695   -1.7772 C.ar    1  UNL11      -0.0540
     24 C          -4.3543   -0.7077   -3.6372 C.ar    1  UNL11      -0.0540
     25 C          -7.5057   -2.0749    1.4503 C.ar    1  UNL11       0.0554
     26 C          -8.1192   -3.1929   -0.7158 C.ar    1  UNL11      -0.0607
     27 C          -2.9060   -2.9482   -2.5966 C.ar    1  UNL11      -0.0612
     28 C          -3.3731   -1.3334   -4.4706 C.ar    1  UNL11      -0.0612
     29 C          -8.2206   -3.0649    0.7071 C.ar    1  UNL11      -0.0501
     30 C          -2.6829   -2.4573   -3.9225 C.ar    1  UNL11      -0.0617
     31 C          -7.6613   -1.9608    2.8975 C.3     1  UNL11       0.4174
     32 H          -1.5101    3.5023    0.6860 H       1  UNL11       0.0483
     33 H          -4.0851    3.9442    2.2244 H       1  UNL11       0.0442
     34 H          -3.1258    2.5229    2.0820 H       1  UNL11       0.0442
     35 H          -3.2965    1.0754   -0.0165 H       1  UNL11       0.0430
     36 H          -2.6344    2.5485   -0.7913 H       1  UNL11       0.0430
     37 H          -6.2194    3.0484    1.4053 H       1  UNL11       0.0430
     38 H          -5.3874    1.4667    1.5828 H       1  UNL11       0.0430
     39 H          -4.8652    2.6713   -2.0991 H       1  UNL11       0.0323
     40 H          -3.8762    1.1493   -2.4403 H       1  UNL11       0.0323
     41 H          -7.2588    1.0660    0.0585 H       1  UNL11       0.0323
     42 H          -6.7979    2.5699   -0.8854 H       1  UNL11       0.0323
     43 H          -3.5335    5.6808    0.2643 H       1  UNL11       0.0392
     44 H          -2.5006    4.9132   -0.8911 H       1  UNL11       0.0392
     45 H          -2.8163    6.1726    3.0686 H       1  UNL11       0.0434
     46 H          -1.2453    6.1379    3.9369 H       1  UNL11       0.0434
     47 H          -1.5792    8.0620    2.2840 H       1  UNL11       0.0389
     48 H          -0.0622    7.1634    2.2246 H       1  UNL11       0.0389
     49 H           0.4575    4.7573    3.1859 H       1  UNL11       0.0391
     50 H           0.1466    3.3851    2.0957 H       1  UNL11       0.0391
     51 H           0.3143    5.0284    1.4326 H       1  UNL11       0.0391
     52 H          -6.0968   -0.5039    1.2432 H       1  UNL11       0.0629
     53 H          -7.1880   -2.3533   -2.4354 H       1  UNL11       0.0624
     54 H          -4.0283   -2.5946   -0.8239 H       1  UNL11       0.0624
     55 H          -4.8938    0.0701   -4.0171 H       1  UNL11       0.0624
     56 H          -8.6452   -3.9106   -1.2144 H       1  UNL11       0.0618
     57 H          -2.3955   -3.7580   -2.2445 H       1  UNL11       0.0618
     58 H          -3.1760   -0.9927   -5.4117 H       1  UNL11       0.0618
     59 H          -8.8298   -3.7084    1.2124 H       1  UNL11       0.0623
     60 H          -1.9958   -2.9347   -4.5059 H       1  UNL11       0.0618
@<TRIPOS>BOND
     1     1    14    1
     2     1    16    1
     3     2    31    1
     4     3    31    1
     5     4    31    1
     6     5     8    1
     7     5     9    1
     8     5    10    1
     9     6     7    1
    10     6    15    1
    11     6    18    1
    12     7     8    1
    13     7    14    1
    14     7    32    1
    15     8    33    1
    16     8    34    1
    17     9    11    1
    18     9    35    1
    19     9    36    1
    20    10    12    1
    21    10    37    1
    22    10    38    1
    23    11    13    1
    24    11    39    1
    25    11    40    1
    26    12    13    1
    27    12    41    1
    28    12    42    1
    29    13    17    2
    30    14    43    1
    31    14    44    1
    32    15    16    1
    33    15    45    1
    34    15    46    1
    35    16    47    1
    36    16    48    1
    37    17    19    1
    38    17    20    1
    39    18    49    1
    40    18    50    1
    41    18    51    1
    42    19    21   ar
    43    19    22   ar
    44    20    23   ar
    45    20    24   ar
    46    21    25   ar
    47    21    52    1
    48    22    26   ar
    49    22    53    1
    50    23    27   ar
    51    23    54    1
    52    24    28   ar
    53    24    55    1
    54    25    29   ar
    55    25    31    1
    56    26    29   ar
    57    26    56    1
    58    27    30   ar
    59    27    57    1
    60    28    30   ar
    61    28    58    1
    62    29    59    1
    63    30    60    1
