lig
 OpenBabel04112506213D

 60 63  0  0  1  0  0  0  0  0999 V2000
   -6.4197    0.0406    2.0014 S   0  0  0  0  0  0  0  0  0  0  0  0
    4.0891   -4.5666   -0.3300 F   0  0  0  0  0  0  0  0  0  0  0  0
    2.2644   -3.9681   -1.3500 F   0  0  0  0  0  0  0  0  0  0  0  0
    4.1577   -3.0656   -1.9017 F   0  0  0  0  0  0  0  0  0  0  0  0
   -2.4545    0.7954   -0.0988 N   0  0  0  0  0  0  0  0  0  0  0  0
   -5.8274   -0.6541   -1.0668 N   0  0  0  0  0  0  0  0  0  0  0  0
   -4.7096   -0.2258   -0.1896 C   0  0  1  0  0  0  0  0  0  0  0  0
   -3.5798    0.4663   -0.9734 C   0  0  0  0  0  0  0  0  0  0  0  0
   -1.6425    1.8734   -0.6883 C   0  0  0  0  0  0  0  0  0  0  0  0
   -1.6361   -0.4017    0.1587 C   0  0  0  0  0  0  0  0  0  0  0  0
   -0.4860    2.2723    0.2355 C   0  0  0  0  0  0  0  0  0  0  0  0
   -0.4792   -0.0937    1.1161 C   0  0  0  0  0  0  0  0  0  0  0  0
    0.3323    1.0650    0.6040 C   0  0  0  0  0  0  0  0  0  0  0  0
   -5.1867    0.7651    0.8893 C   0  0  0  0  0  0  0  0  0  0  0  0
   -6.8643   -1.3833   -0.3115 C   0  0  0  0  0  0  0  0  0  0  0  0
   -7.5728   -0.5232    0.7293 C   0  0  0  0  0  0  0  0  0  0  0  0
    1.6635    1.0150    0.4585 C   0  0  0  0  0  0  0  0  0  0  0  0
   -5.3743   -1.4993   -2.1780 C   0  0  0  0  0  0  0  0  0  0  0  0
    2.3680   -0.2444    0.8217 C   0  0  0  0  0  0  0  0  0  0  0  0
    2.3644    2.2218   -0.0578 C   0  0  0  0  0  0  0  0  0  0  0  0
    2.5599   -1.2377   -0.1387 C   0  0  0  0  0  0  0  0  0  0  0  0
    2.8365   -0.4316    2.1222 C   0  0  0  0  0  0  0  0  0  0  0  0
    2.5546    2.3842   -1.4300 C   0  0  0  0  0  0  0  0  0  0  0  0
    2.8311    3.1906    0.8304 C   0  0  0  0  0  0  0  0  0  0  0  0
    3.2203   -2.4182    0.2014 C   0  0  0  0  0  0  0  0  0  0  0  0
    3.4969   -1.6123    2.4622 C   0  0  0  0  0  0  0  0  0  0  0  0
    3.2117    3.5155   -1.9141 C   0  0  0  0  0  0  0  0  0  0  0  0
    3.4880    4.3219    0.3465 C   0  0  0  0  0  0  0  0  0  0  0  0
    3.6888   -2.6056    1.5018 C   0  0  0  0  0  0  0  0  0  0  0  0
    3.6784    4.4844   -1.0258 C   0  0  0  0  0  0  0  0  0  0  0  0
    3.4272   -3.4804   -0.8248 C   0  0  0  0  0  0  0  0  0  0  0  0
   -4.3113   -1.1224    0.3023 H   0  0  0  0  0  0  0  0  0  0  0  0
   -3.9950    1.3803   -1.4213 H   0  0  0  0  0  0  0  0  0  0  0  0
   -3.2130   -0.1414   -1.8076 H   0  0  0  0  0  0  0  0  0  0  0  0
   -1.2492    1.5727   -1.6690 H   0  0  0  0  0  0  0  0  0  0  0  0
   -2.2668    2.7618   -0.8453 H   0  0  0  0  0  0  0  0  0  0  0  0
   -2.2335   -1.1924    0.6238 H   0  0  0  0  0  0  0  0  0  0  0  0
   -1.2343   -0.8098   -0.7790 H   0  0  0  0  0  0  0  0  0  0  0  0
   -0.8948    2.7036    1.1594 H   0  0  0  0  0  0  0  0  0  0  0  0
    0.0662    3.0791   -0.2518 H   0  0  0  0  0  0  0  0  0  0  0  0
    0.0788   -1.0196    1.2734 H   0  0  0  0  0  0  0  0  0  0  0  0
   -0.8873    0.1815    2.0982 H   0  0  0  0  0  0  0  0  0  0  0  0
   -4.3621    1.0894    1.5313 H   0  0  0  0  0  0  0  0  0  0  0  0
   -5.6157    1.6663    0.4354 H   0  0  0  0  0  0  0  0  0  0  0  0
   -6.4480   -2.2870    0.1548 H   0  0  0  0  0  0  0  0  0  0  0  0
   -7.6409   -1.7242   -1.0089 H   0  0  0  0  0  0  0  0  0  0  0  0
   -8.0474    0.3467    0.2621 H   0  0  0  0  0  0  0  0  0  0  0  0
   -8.3630   -1.1045    1.2151 H   0  0  0  0  0  0  0  0  0  0  0  0
   -4.8022   -0.9233   -2.9113 H   0  0  0  0  0  0  0  0  0  0  0  0
   -6.2279   -1.8979   -2.7394 H   0  0  0  0  0  0  0  0  0  0  0  0
   -4.7712   -2.3467   -1.8332 H   0  0  0  0  0  0  0  0  0  0  0  0
    2.1959   -1.0976   -1.1544 H   0  0  0  0  0  0  0  0  0  0  0  0
    2.6941    0.3329    2.8820 H   0  0  0  0  0  0  0  0  0  0  0  0
    2.1958    1.6383   -2.1350 H   0  0  0  0  0  0  0  0  0  0  0  0
    2.6901    3.0788    1.9027 H   0  0  0  0  0  0  0  0  0  0  0  0
    3.8615   -1.7581    3.4748 H   0  0  0  0  0  0  0  0  0  0  0  0
    3.3596    3.6421   -2.9826 H   0  0  0  0  0  0  0  0  0  0  0  0
    3.8512    5.0765    1.0381 H   0  0  0  0  0  0  0  0  0  0  0  0
    4.2057   -3.5175    1.7874 H   0  0  0  0  0  0  0  0  0  0  0  0
    4.1899    5.3653   -1.4026 H   0  0  0  0  0  0  0  0  0  0  0  0
  1 14  1  0  0  0  0
  1 16  1  0  0  0  0
  2 31  1  0  0  0  0
  3 31  1  0  0  0  0
  4 31  1  0  0  0  0
  5  8  1  0  0  0  0
  5  9  1  0  0  0  0
  5 10  1  0  0  0  0
  6  7  1  0  0  0  0
  6 15  1  0  0  0  0
  6 18  1  0  0  0  0
  7  8  1  0  0  0  0
  7 14  1  0  0  0  0
  7 32  1  1  0  0  0
  8 33  1  0  0  0  0
  8 34  1  0  0  0  0
  9 11  1  0  0  0  0
  9 35  1  0  0  0  0
  9 36  1  0  0  0  0
 10 12  1  0  0  0  0
 10 37  1  0  0  0  0
 10 38  1  0  0  0  0
 11 13  1  0  0  0  0
 11 39  1  0  0  0  0
 11 40  1  0  0  0  0
 12 13  1  0  0  0  0
 12 41  1  0  0  0  0
 12 42  1  0  0  0  0
 13 17  2  0  0  0  0
 14 43  1  0  0  0  0
 14 44  1  0  0  0  0
 15 16  1  0  0  0  0
 15 45  1  0  0  0  0
 15 46  1  0  0  0  0
 16 47  1  0  0  0  0
 16 48  1  0  0  0  0
 17 19  1  0  0  0  0
 17 20  1  0  0  0  0
 18 49  1  0  0  0  0
 18 50  1  0  0  0  0
 18 51  1  0  0  0  0
 19 21  2  0  0  0  0
 19 22  1  0  0  0  0
 20 23  2  0  0  0  0
 20 24  1  0  0  0  0
 21 25  1  0  0  0  0
 21 52  1  0  0  0  0
 22 26  2  0  0  0  0
 22 53  1  0  0  0  0
 23 27  1  0  0  0  0
 23 54  1  0  0  0  0
 24 28  2  0  0  0  0
 24 55  1  0  0  0  0
 25 29  2  0  0  0  0
 25 31  1  0  0  0  0
 26 29  1  0  0  0  0
 26 56  1  0  0  0  0
 27 30  2  0  0  0  0
 27 57  1  0  0  0  0
 28 30  1  0  0  0  0
 28 58  1  0  0  0  0
 29 59  1  0  0  0  0
 30 60  1  0  0  0  0
M  END
