57232718
  Mrv15b2304112506202D          

 60 63  0  0  1  0            999 V2000
    2.4293    2.8400    0.0000 S   0  0  0  0  0  0  0  0  0  0  0  0
   -4.7154   -1.2850    0.0000 F   0  0  0  0  0  0  0  0  0  0  0  0
   -3.5884   -1.5870    0.0000 F   0  0  0  0  0  0  0  0  0  0  0  0
   -4.4134   -0.1580    0.0000 F   0  0  0  0  0  0  0  0  0  0  0  0
    1.0004    0.3650    0.0000 N   0  0  0  0  0  0  0  0  0  0  0  0
    1.0004    2.0150    0.0000 N   0  0  0  0  0  0  0  0  0  0  0  0
    1.7149    1.6025    0.0000 C   0  0  1  0  0  0  0  0  0  0  0  0
    1.7149    0.7775    0.0000 C   0  0  0  0  0  0  0  0  0  0  0  0
    1.0004   -0.4600    0.0000 C   0  0  0  0  0  0  0  0  0  0  0  0
    0.2859    0.7775    0.0000 C   0  0  0  0  0  0  0  0  0  0  0  0
    0.2859   -0.8725    0.0000 C   0  0  0  0  0  0  0  0  0  0  0  0
   -0.4286    0.3650    0.0000 C   0  0  0  0  0  0  0  0  0  0  0  0
   -0.4286   -0.4600    0.0000 C   0  0  0  0  0  0  0  0  0  0  0  0
    2.4293    2.0150    0.0000 C   0  0  0  0  0  0  0  0  0  0  0  0
    1.0004    2.8400    0.0000 C   0  0  0  0  0  0  0  0  0  0  0  0
    1.7149    3.2525    0.0000 C   0  0  0  0  0  0  0  0  0  0  0  0
   -1.1430   -0.8725    0.0000 C   0  0  0  0  0  0  0  0  0  0  0  0
    0.2859    1.6025    0.0000 C   0  0  0  0  0  0  0  0  0  0  0  0
   -1.8575   -0.4600    0.0000 C   0  0  0  0  0  0  0  0  0  0  0  0
   -1.1430   -1.6975    0.0000 C   0  0  0  0  0  0  0  0  0  0  0  0
   -2.5720   -0.8725    0.0000 C   0  0  0  0  0  0  0  0  0  0  0  0
   -1.8575    0.3650    0.0000 C   0  0  0  0  0  0  0  0  0  0  0  0
   -0.4286   -2.1100    0.0000 C   0  0  0  0  0  0  0  0  0  0  0  0
   -1.8575   -2.1100    0.0000 C   0  0  0  0  0  0  0  0  0  0  0  0
   -3.2864   -0.4600    0.0000 C   0  0  0  0  0  0  0  0  0  0  0  0
   -2.5720    0.7775    0.0000 C   0  0  0  0  0  0  0  0  0  0  0  0
   -0.4286   -2.9350    0.0000 C   0  0  0  0  0  0  0  0  0  0  0  0
   -1.8575   -2.9350    0.0000 C   0  0  0  0  0  0  0  0  0  0  0  0
   -3.2864    0.3650    0.0000 C   0  0  0  0  0  0  0  0  0  0  0  0
   -1.1430   -3.3475    0.0000 C   0  0  0  0  0  0  0  0  0  0  0  0
   -4.0009   -0.8725    0.0000 C   0  0  0  0  0  0  0  0  0  0  0  0
    1.0004    1.1900    0.0000 H   0  0  0  0  0  0  0  0  0  0  0  0
    2.1682    0.0882    0.0000 H   0  0  0  0  0  0  0  0  0  0  0  0
    2.5385    0.7295    0.0000 H   0  0  0  0  0  0  0  0  0  0  0  0
    1.4537   -1.1493    0.0000 H   0  0  0  0  0  0  0  0  0  0  0  0
    1.8240   -0.5080    0.0000 H   0  0  0  0  0  0  0  0  0  0  0  0
    0.2859   -0.0475    0.0000 H   0  0  0  0  0  0  0  0  0  0  0  0
   -0.4286    1.1900    0.0000 H   0  0  0  0  0  0  0  0  0  0  0  0
   -0.0843   -1.6097    0.0000 H   0  0  0  0  0  0  0  0  0  0  0  0
    0.6562   -1.6097    0.0000 H   0  0  0  0  0  0  0  0  0  0  0  0
   -1.2038    0.6472    0.0000 H   0  0  0  0  0  0  0  0  0  0  0  0
   -1.2038    0.0828    0.0000 H   0  0  0  0  0  0  0  0  0  0  0  0
    2.8827    1.3257    0.0000 H   0  0  0  0  0  0  0  0  0  0  0  0
    3.2529    1.9670    0.0000 H   0  0  0  0  0  0  0  0  0  0  0  0
    0.5470    3.5293    0.0000 H   0  0  0  0  0  0  0  0  0  0  0  0
    0.1768    2.8880    0.0000 H   0  0  0  0  0  0  0  0  0  0  0  0
    2.0851    3.9898    0.0000 H   0  0  0  0  0  0  0  0  0  0  0  0
    1.3446    3.9898    0.0000 H   0  0  0  0  0  0  0  0  0  0  0  0
    0.4994    2.3994    0.0000 H   0  0  0  0  0  0  0  0  0  0  0  0
   -0.1266    2.3170    0.0000 H   0  0  0  0  0  0  0  0  0  0  0  0
   -0.5110    1.8160    0.0000 H   0  0  0  0  0  0  0  0  0  0  0  0
   -2.5720   -1.6975    0.0000 H   0  0  0  0  0  0  0  0  0  0  0  0
   -1.8096    1.1886    0.0000 H   0  0  0  0  0  0  0  0  0  0  0  0
    0.3593   -2.3549    0.0000 H   0  0  0  0  0  0  0  0  0  0  0  0
   -1.8575   -1.2850    0.0000 H   0  0  0  0  0  0  0  0  0  0  0  0
   -2.9741    1.4979    0.0000 H   0  0  0  0  0  0  0  0  0  0  0  0
    0.2859   -3.3475    0.0000 H   0  0  0  0  0  0  0  0  0  0  0  0
   -2.5720   -3.3475    0.0000 H   0  0  0  0  0  0  0  0  0  0  0  0
   -4.0009    0.7775    0.0000 H   0  0  0  0  0  0  0  0  0  0  0  0
   -1.1430   -4.1725    0.0000 H   0  0  0  0  0  0  0  0  0  0  0  0
  1 14  1  0  0  0  0
  1 16  1  0  0  0  0
  2 31  1  0  0  0  0
  3 31  1  0  0  0  0
  4 31  1  0  0  0  0
  5  8  1  0  0  0  0
  5  9  1  0  0  0  0
  5 10  1  0  0  0  0
  6  7  1  0  0  0  0
  6 15  1  0  0  0  0
  6 18  1  0  0  0  0
  7  8  1  6  0  0  0
  7 14  1  0  0  0  0
  7 32  1  1  0  0  0
  8 33  1  0  0  0  0
  8 34  1  0  0  0  0
  9 11  1  0  0  0  0
  9 35  1  0  0  0  0
  9 36  1  0  0  0  0
 10 12  1  0  0  0  0
 10 37  1  0  0  0  0
 10 38  1  0  0  0  0
 11 13  1  0  0  0  0
 11 39  1  0  0  0  0
 11 40  1  0  0  0  0
 12 13  1  0  0  0  0
 12 41  1  0  0  0  0
 12 42  1  0  0  0  0
 13 17  2  0  0  0  0
 14 43  1  0  0  0  0
 14 44  1  0  0  0  0
 15 16  1  0  0  0  0
 15 45  1  0  0  0  0
 15 46  1  0  0  0  0
 16 47  1  0  0  0  0
 16 48  1  0  0  0  0
 17 19  1  0  0  0  0
 17 20  1  0  0  0  0
 18 49  1  0  0  0  0
 18 50  1  0  0  0  0
 18 51  1  0  0  0  0
 19 21  2  0  0  0  0
 19 22  1  0  0  0  0
 20 23  2  0  0  0  0
 20 24  1  0  0  0  0
 21 25  1  0  0  0  0
 21 52  1  0  0  0  0
 22 26  2  0  0  0  0
 22 53  1  0  0  0  0
 23 27  1  0  0  0  0
 23 54  1  0  0  0  0
 24 28  2  3  0  0  0
 24 55  1  0  0  0  0
 25 29  2  0  0  0  0
 25 31  1  0  0  0  0
 26 29  1  0  0  0  0
 26 56  1  0  0  0  0
 27 30  2  0  0  0  0
 27 57  1  0  0  0  0
 28 30  1  0  0  0  0
 28 58  1  0  0  0  0
 29 59  1  0  0  0  0
 30 60  1  0  0  0  0
M  END
