3066532
  Mrv15b2304152517583D          

 52 55  0  0  1  0            999 V2000
    0.3688    1.9471   -0.8410 S   0  0  0  0  0  0  0  0  0  0  0  0
    1.3732   -1.4686    3.7864 N   0  0  1  0  0  0  0  0  0  0  0  0
    4.0665   -2.1250    5.0006 N   0  0  2  0  0  0  0  0  0  0  0  0
    0.3134   -0.9377    0.0853 N   0  0  0  0  0  0  0  0  0  0  0  0
    1.0492   -0.7209    2.4916 C   0  0  1  0  0  0  0  0  0  0  0  0
    1.9533   -2.8782    3.6960 C   0  0  1  0  0  0  0  0  0  0  0  0
    2.0191   -0.6144    4.8541 C   0  0  2  0  0  0  0  0  0  0  0  0
    3.1848   -3.2762    4.5832 C   0  0  2  0  0  0  0  0  0  0  0  0
    3.5697   -0.7109    4.8952 C   0  0  1  0  0  0  0  0  0  0  0  0
    0.4653   -1.6235    1.3619 C   0  0  1  0  0  0  0  0  0  0  0  0
    0.1337    0.5251    2.7122 C   0  0  0  0  0  0  0  0  0  0  0  0
    5.3627   -2.2372    4.3336 C   0  0  1  0  0  0  0  0  0  0  0  0
    1.5382   -0.5510   -0.5230 C   0  0  0  0  0  0  0  0  0  0  0  0
   -0.9784   -0.3733   -0.0776 C   0  0  0  0  0  0  0  0  0  0  0  0
    6.0269   -3.5577    4.7287 C   0  0  0  0  0  0  0  0  0  0  0  0
    1.7219    0.8379   -0.8397 C   0  0  0  0  0  0  0  0  0  0  0  0
   -1.0475    1.0321   -0.3639 C   0  0  0  0  0  0  0  0  0  0  0  0
    2.7114   -1.4042   -0.6141 C   0  0  0  0  0  0  0  0  0  0  0  0
   -2.2182   -1.0301    0.3180 C   0  0  0  0  0  0  0  0  0  0  0  0
    3.0033    1.4211   -1.0929 C   0  0  0  0  0  0  0  0  0  0  0  0
   -2.2210    1.8154   -0.1365 C   0  0  0  0  0  0  0  0  0  0  0  0
    3.9915   -0.8362   -0.8758 C   0  0  0  0  0  0  0  0  0  0  0  0
   -3.3891   -0.2538    0.5542 C   0  0  0  0  0  0  0  0  0  0  0  0
    4.1358    0.5649   -1.0904 C   0  0  0  0  0  0  0  0  0  0  0  0
   -3.3814    1.1513    0.3459 C   0  0  0  0  0  0  0  0  0  0  0  0
    1.9884   -0.3307    2.1060 H   0  0  0  0  0  0  0  0  0  0  0  0
    1.1559   -3.6087    3.8325 H   0  0  0  0  0  0  0  0  0  0  0  0
    2.2352   -2.9848    2.6485 H   0  0  0  0  0  0  0  0  0  0  0  0
    1.6124   -0.8826    5.8292 H   0  0  0  0  0  0  0  0  0  0  0  0
    1.7527    0.4302    4.6934 H   0  0  0  0  0  0  0  0  0  0  0  0
    2.8377   -3.8078    5.4692 H   0  0  0  0  0  0  0  0  0  0  0  0
    3.7789   -3.9954    4.0194 H   0  0  0  0  0  0  0  0  0  0  0  0
    3.9478   -0.1293    5.7360 H   0  0  0  0  0  0  0  0  0  0  0  0
    3.9612   -0.3130    3.9590 H   0  0  0  0  0  0  0  0  0  0  0  0
   -0.4989   -2.0221    1.6772 H   0  0  0  0  0  0  0  0  0  0  0  0
    1.1890   -2.4314    1.2542 H   0  0  0  0  0  0  0  0  0  0  0  0
   -0.0575    1.0095    1.7546 H   0  0  0  0  0  0  0  0  0  0  0  0
   -0.8110    0.2082    3.1541 H   0  0  0  0  0  0  0  0  0  0  0  0
    0.6306    1.2271    3.3817 H   0  0  0  0  0  0  0  0  0  0  0  0
    5.2189   -2.2117    3.2535 H   0  0  0  0  0  0  0  0  0  0  0  0
    5.9996   -1.4056    4.6352 H   0  0  0  0  0  0  0  0  0  0  0  0
    6.9933   -3.6413    4.2314 H   0  0  0  0  0  0  0  0  0  0  0  0
    5.3900   -4.3892    4.4271 H   0  0  0  0  0  0  0  0  0  0  0  0
    6.1707   -3.5832    5.8088 H   0  0  0  0  0  0  0  0  0  0  0  0
    2.6179   -2.4123   -0.4903 H   0  0  0  0  0  0  0  0  0  0  0  0
   -2.2473   -2.0440    0.4256 H   0  0  0  0  0  0  0  0  0  0  0  0
    3.1004    2.4209   -1.2696 H   0  0  0  0  0  0  0  0  0  0  0  0
   -2.2257    2.8197   -0.3149 H   0  0  0  0  0  0  0  0  0  0  0  0
    4.8135   -1.4391   -0.9098 H   0  0  0  0  0  0  0  0  0  0  0  0
   -4.2419   -0.7116    0.8762 H   0  0  0  0  0  0  0  0  0  0  0  0
    5.0644    0.9577   -1.2443 H   0  0  0  0  0  0  0  0  0  0  0  0
   -4.2224    1.6926    0.5458 H   0  0  0  0  0  0  0  0  0  0  0  0
  1 16  1  0  0  0  0
  1 17  1  0  0  0  0
  2  5  1  0  0  0  0
  2  6  1  0  0  0  0
  2  7  1  0  0  0  0
  3  8  1  0  0  0  0
  3  9  1  0  0  0  0
  3 12  1  0  0  0  0
  4 10  1  0  0  0  0
  4 13  1  0  0  0  0
  4 14  1  0  0  0  0
  5 10  1  0  0  0  0
  5 11  1  0  0  0  0
  5 26  1  0  0  0  0
  6  8  1  0  0  0  0
  6 27  1  0  0  0  0
  6 28  1  0  0  0  0
  7  9  1  0  0  0  0
  7 29  1  0  0  0  0
  7 30  1  0  0  0  0
  8 31  1  0  0  0  0
  8 32  1  0  0  0  0
  9 33  1  0  0  0  0
  9 34  1  0  0  0  0
 10 35  1  0  0  0  0
 10 36  1  0  0  0  0
 11 37  1  0  0  0  0
 11 38  1  0  0  0  0
 11 39  1  0  0  0  0
 12 15  1  0  0  0  0
 12 40  1  0  0  0  0
 12 41  1  0  0  0  0
 13 16  1  0  0  0  0
 13 18  2  0  0  0  0
 14 17  1  0  0  0  0
 14 19  2  0  0  0  0
 15 42  1  0  0  0  0
 15 43  1  0  0  0  0
 15 44  1  0  0  0  0
 16 20  2  0  0  0  0
 17 21  2  0  0  0  0
 18 22  1  0  0  0  0
 18 45  1  0  0  0  0
 19 23  1  0  0  0  0
 19 46  1  0  0  0  0
 20 24  1  0  0  0  0
 20 47  1  0  0  0  0
 21 25  1  0  0  0  0
 21 48  1  0  0  0  0
 22 24  2  0  0  0  0
 22 49  1  0  0  0  0
 23 25  2  0  0  0  0
 23 50  1  0  0  0  0
 24 51  1  0  0  0  0
 25 52  1  0  0  0  0
M  END
