@<TRIPOS>MOLECULE
lig
 52 55 0 0 0
SMALL
GASTEIGER

@<TRIPOS>ATOM
      1 S           0.3688    1.9471   -0.8410 S.3     1  UNL11      -0.0857
      2 N           1.3732   -1.4686    3.7864 N.3     1  UNL11      -0.2957
      3 N           4.0665   -2.1250    5.0006 N.3     1  UNL11      -0.3002
      4 N           0.3134   -0.9377    0.0853 N.pl3   1  UNL11      -0.2968
      5 C           1.0492   -0.7209    2.4916 C.3     1  UNL11       0.0237
      6 C           1.9533   -2.8782    3.6960 C.3     1  UNL11       0.0120
      7 C           2.0191   -0.6144    4.8541 C.3     1  UNL11       0.0120
      8 C           3.1848   -3.2762    4.5832 C.3     1  UNL11       0.0117
      9 C           3.5697   -0.7109    4.8952 C.3     1  UNL11       0.0117
     10 C           0.4653   -1.6235    1.3619 C.3     1  UNL11       0.0327
     11 C           0.1337    0.5251    2.7122 C.3     1  UNL11      -0.0480
     12 C           5.3627   -2.2372    4.3336 C.3     1  UNL11      -0.0039
     13 C           1.5382   -0.5510   -0.5230 C.ar    1  UNL11       0.0479
     14 C          -0.9784   -0.3733   -0.0776 C.ar    1  UNL11       0.0479
     15 C           6.0269   -3.5577    4.7287 C.3     1  UNL11      -0.0524
     16 C           1.7219    0.8379   -0.8397 C.ar    1  UNL11       0.0341
     17 C          -1.0475    1.0321   -0.3639 C.ar    1  UNL11       0.0341
     18 C           2.7114   -1.4042   -0.6141 C.ar    1  UNL11      -0.0393
     19 C          -2.2182   -1.0301    0.3180 C.ar    1  UNL11      -0.0393
     20 C           3.0033    1.4211   -1.0929 C.ar    1  UNL11      -0.0462
     21 C          -2.2210    1.8154   -0.1365 C.ar    1  UNL11      -0.0462
     22 C           3.9915   -0.8362   -0.8758 C.ar    1  UNL11      -0.0599
     23 C          -3.3891   -0.2538    0.5542 C.ar    1  UNL11      -0.0599
     24 C           4.1358    0.5649   -1.0904 C.ar    1  UNL11      -0.0606
     25 C          -3.3814    1.1513    0.3459 C.ar    1  UNL11      -0.0606
     26 H           1.9884   -0.3307    2.1060 H       1  UNL11       0.0475
     27 H           1.1559   -3.6087    3.8325 H       1  UNL11       0.0439
     28 H           2.2352   -2.9848    2.6485 H       1  UNL11       0.0439
     29 H           1.6124   -0.8826    5.8292 H       1  UNL11       0.0439
     30 H           1.7527    0.4302    4.6934 H       1  UNL11       0.0439
     31 H           2.8377   -3.8078    5.4692 H       1  UNL11       0.0439
     32 H           3.7789   -3.9954    4.0194 H       1  UNL11       0.0439
     33 H           3.9478   -0.1293    5.7360 H       1  UNL11       0.0439
     34 H           3.9612   -0.3130    3.9590 H       1  UNL11       0.0439
     35 H          -0.4989   -2.0221    1.6772 H       1  UNL11       0.0483
     36 H           1.1890   -2.4314    1.2542 H       1  UNL11       0.0483
     37 H          -0.0575    1.0095    1.7546 H       1  UNL11       0.0245
     38 H          -0.8110    0.2082    3.1541 H       1  UNL11       0.0245
     39 H           0.6306    1.2271    3.3817 H       1  UNL11       0.0245
     40 H           5.2189   -2.2117    3.2535 H       1  UNL11       0.0424
     41 H           5.9996   -1.4056    4.6352 H       1  UNL11       0.0424
     42 H           6.9933   -3.6413    4.2314 H       1  UNL11       0.0242
     43 H           5.3900   -4.3892    4.4271 H       1  UNL11       0.0242
     44 H           6.1707   -3.5832    5.8088 H       1  UNL11       0.0242
     45 H           2.6179   -2.4123   -0.4903 H       1  UNL11       0.0636
     46 H          -2.2473   -2.0440    0.4256 H       1  UNL11       0.0636
     47 H           3.1004    2.4209   -1.2696 H       1  UNL11       0.0629
     48 H          -2.2257    2.8197   -0.3149 H       1  UNL11       0.0629
     49 H           4.8135   -1.4391   -0.9098 H       1  UNL11       0.0618
     50 H          -4.2419   -0.7116    0.8762 H       1  UNL11       0.0618
     51 H           5.0644    0.9577   -1.2443 H       1  UNL11       0.0618
     52 H          -4.2224    1.6926    0.5458 H       1  UNL11       0.0618
@<TRIPOS>BOND
     1     1    16    1
     2     1    17    1
     3     2     5    1
     4     2     6    1
     5     2     7    1
     6     3     8    1
     7     3     9    1
     8     3    12    1
     9     4    10    1
    10     4    13    1
    11     4    14    1
    12     5    10    1
    13     5    11    1
    14     5    26    1
    15     6     8    1
    16     6    27    1
    17     6    28    1
    18     7     9    1
    19     7    29    1
    20     7    30    1
    21     8    31    1
    22     8    32    1
    23     9    33    1
    24     9    34    1
    25    10    35    1
    26    10    36    1
    27    11    37    1
    28    11    38    1
    29    11    39    1
    30    12    15    1
    31    12    40    1
    32    12    41    1
    33    13    16   ar
    34    13    18   ar
    35    14    17   ar
    36    14    19   ar
    37    15    42    1
    38    15    43    1
    39    15    44    1
    40    16    20   ar
    41    17    21   ar
    42    18    22   ar
    43    18    45    1
    44    19    23   ar
    45    19    46    1
    46    20    24   ar
    47    20    47    1
    48    21    25   ar
    49    21    48    1
    50    22    24   ar
    51    22    49    1
    52    23    25   ar
    53    23    50    1
    54    24    51    1
    55    25    52    1
