3066532
  -OEChem-04152517582D

 52 55  0     1  0  0  0  0  0999 V2000
    4.6660   -3.9827    0.0000 S   0  0  0  0  0  0  0  0  0  0  0  0
    5.5321    0.5173    0.0000 N   0  0  0  0  0  0  0  0  0  0  0  0
    5.5321    2.5173    0.0000 N   0  0  0  0  0  0  0  0  0  0  0  0
    4.6660   -1.9827    0.0000 N   0  0  0  0  0  0  0  0  0  0  0  0
    5.5321   -0.4827    0.0000 C   0  0  3  0  0  0  0  0  0  0  0  0
    4.6660    1.0173    0.0000 C   0  0  0  0  0  0  0  0  0  0  0  0
    6.3981    1.0173    0.0000 C   0  0  0  0  0  0  0  0  0  0  0  0
    4.6660    2.0173    0.0000 C   0  0  0  0  0  0  0  0  0  0  0  0
    6.3981    2.0173    0.0000 C   0  0  0  0  0  0  0  0  0  0  0  0
    4.6660   -0.9827    0.0000 C   0  0  0  0  0  0  0  0  0  0  0  0
    6.3981   -0.9827    0.0000 C   0  0  0  0  0  0  0  0  0  0  0  0
    5.5321    3.5173    0.0000 C   0  0  0  0  0  0  0  0  0  0  0  0
    5.5321   -2.4827    0.0000 C   0  0  0  0  0  0  0  0  0  0  0  0
    3.8000   -2.4827    0.0000 C   0  0  0  0  0  0  0  0  0  0  0  0
    6.3981    4.0173    0.0000 C   0  0  0  0  0  0  0  0  0  0  0  0
    5.5321   -3.4827    0.0000 C   0  0  0  0  0  0  0  0  0  0  0  0
    3.8000   -3.4827    0.0000 C   0  0  0  0  0  0  0  0  0  0  0  0
    6.4260   -1.9480    0.0000 C   0  0  0  0  0  0  0  0  0  0  0  0
    2.9061   -1.9480    0.0000 C   0  0  0  0  0  0  0  0  0  0  0  0
    6.4260   -4.0173    0.0000 C   0  0  0  0  0  0  0  0  0  0  0  0
    2.9061   -4.0173    0.0000 C   0  0  0  0  0  0  0  0  0  0  0  0
    7.3321   -2.4618    0.0000 C   0  0  0  0  0  0  0  0  0  0  0  0
    2.0000   -2.4618    0.0000 C   0  0  0  0  0  0  0  0  0  0  0  0
    7.3321   -3.5035    0.0000 C   0  0  0  0  0  0  0  0  0  0  0  0
    2.0000   -3.5035    0.0000 C   0  0  0  0  0  0  0  0  0  0  0  0
    6.0690   -0.1727    0.0000 H   0  0  0  0  0  0  0  0  0  0  0  0
    4.0555    1.1250    0.0000 H   0  0  0  0  0  0  0  0  0  0  0  0
    4.4540    0.4347    0.0000 H   0  0  0  0  0  0  0  0  0  0  0  0
    6.6101    0.4347    0.0000 H   0  0  0  0  0  0  0  0  0  0  0  0
    7.0087    1.1250    0.0000 H   0  0  0  0  0  0  0  0  0  0  0  0
    4.4540    2.5999    0.0000 H   0  0  0  0  0  0  0  0  0  0  0  0
    4.0555    1.9097    0.0000 H   0  0  0  0  0  0  0  0  0  0  0  0
    7.0087    1.9097    0.0000 H   0  0  0  0  0  0  0  0  0  0  0  0
    6.6101    2.5999    0.0000 H   0  0  0  0  0  0  0  0  0  0  0  0
    4.4540   -0.4001    0.0000 H   0  0  0  0  0  0  0  0  0  0  0  0
    4.0555   -1.0903    0.0000 H   0  0  0  0  0  0  0  0  0  0  0  0
    6.0881   -1.5196    0.0000 H   0  0  0  0  0  0  0  0  0  0  0  0
    6.9350   -1.2927    0.0000 H   0  0  0  0  0  0  0  0  0  0  0  0
    6.7081   -0.4457    0.0000 H   0  0  0  0  0  0  0  0  0  0  0  0
    5.3200    4.0999    0.0000 H   0  0  0  0  0  0  0  0  0  0  0  0
    4.9215    3.4097    0.0000 H   0  0  0  0  0  0  0  0  0  0  0  0
    6.7081    3.4804    0.0000 H   0  0  0  0  0  0  0  0  0  0  0  0
    6.9350    4.3273    0.0000 H   0  0  0  0  0  0  0  0  0  0  0  0
    6.0881    4.5543    0.0000 H   0  0  0  0  0  0  0  0  0  0  0  0
    6.4188   -1.3280    0.0000 H   0  0  0  0  0  0  0  0  0  0  0  0
    2.9132   -1.3280    0.0000 H   0  0  0  0  0  0  0  0  0  0  0  0
    6.4188   -4.6373    0.0000 H   0  0  0  0  0  0  0  0  0  0  0  0
    2.9132   -4.6373    0.0000 H   0  0  0  0  0  0  0  0  0  0  0  0
    7.8678   -2.1498    0.0000 H   0  0  0  0  0  0  0  0  0  0  0  0
    1.4643   -2.1498    0.0000 H   0  0  0  0  0  0  0  0  0  0  0  0
    7.8678   -3.8156    0.0000 H   0  0  0  0  0  0  0  0  0  0  0  0
    1.4643   -3.8156    0.0000 H   0  0  0  0  0  0  0  0  0  0  0  0
  1 16  1  0  0  0  0
  1 17  1  0  0  0  0
  2  5  1  0  0  0  0
  2  6  1  0  0  0  0
  2  7  1  0  0  0  0
  3  8  1  0  0  0  0
  3  9  1  0  0  0  0
  3 12  1  0  0  0  0
  4 10  1  0  0  0  0
  4 13  1  0  0  0  0
  4 14  1  0  0  0  0
  5 10  1  0  0  0  0
  5 11  1  0  0  0  0
  5 26  1  0  0  0  0
  6  8  1  0  0  0  0
  6 27  1  0  0  0  0
  6 28  1  0  0  0  0
  7  9  1  0  0  0  0
  7 29  1  0  0  0  0
  7 30  1  0  0  0  0
  8 31  1  0  0  0  0
  8 32  1  0  0  0  0
  9 33  1  0  0  0  0
  9 34  1  0  0  0  0
 10 35  1  0  0  0  0
 10 36  1  0  0  0  0
 11 37  1  0  0  0  0
 11 38  1  0  0  0  0
 11 39  1  0  0  0  0
 12 15  1  0  0  0  0
 12 40  1  0  0  0  0
 12 41  1  0  0  0  0
 13 16  1  0  0  0  0
 13 18  2  0  0  0  0
 14 17  1  0  0  0  0
 14 19  2  0  0  0  0
 15 42  1  0  0  0  0
 15 43  1  0  0  0  0
 15 44  1  0  0  0  0
 16 20  2  0  0  0  0
 17 21  2  0  0  0  0
 18 22  1  0  0  0  0
 18 45  1  0  0  0  0
 19 23  1  0  0  0  0
 19 46  1  0  0  0  0
 20 24  1  0  0  0  0
 20 47  1  0  0  0  0
 21 25  1  0  0  0  0
 21 48  1  0  0  0  0
 22 24  2  0  0  0  0
 22 49  1  0  0  0  0
 23 25  2  0  0  0  0
 23 50  1  0  0  0  0
 24 51  1  0  0  0  0
 25 52  1  0  0  0  0
M  END
> <PUBCHEM_COMPOUND_CID>
3066532

> <PUBCHEM_COMPOUND_CANONICALIZED>
1

> <PUBCHEM_CACTVS_COMPLEXITY>
401

> <PUBCHEM_CACTVS_HBOND_ACCEPTOR>
4

> <PUBCHEM_CACTVS_HBOND_DONOR>
0

> <PUBCHEM_CACTVS_ROTATABLE_BOND>
4

> <PUBCHEM_CACTVS_SUBSKEYS>
AAADceB7AABAAAAAAAAAAAAAAAAAAAAAAAA8eIEAAAAAAACxQAAAHAQAAAAACCjBUAQywYMAAAiAACRCQACCAAAhChAIiBwIZIgIYGLgkZGUIAhggADoyAcQAAAAAAAAAAAAAQAAAAAAAAACAAAAAAAAAA==

> <PUBCHEM_IUPAC_OPENEYE_NAME>
10-[2-(4-ethylpiperazin-1-yl)propyl]phenothiazine

> <PUBCHEM_IUPAC_CAS_NAME>
10-[2-(4-ethyl-1-piperazinyl)propyl]phenothiazine

> <PUBCHEM_IUPAC_NAME_MARKUP>
10-[2-(4-ethylpiperazin-1-yl)propyl]phenothiazine

> <PUBCHEM_IUPAC_NAME>
10-[2-(4-ethylpiperazin-1-yl)propyl]phenothiazine

> <PUBCHEM_IUPAC_SYSTEMATIC_NAME>
10-[2-(4-ethylpiperazin-1-yl)propyl]phenothiazine

> <PUBCHEM_IUPAC_TRADITIONAL_NAME>
10-[2-(4-ethylpiperazino)propyl]phenothiazine

> <PUBCHEM_IUPAC_INCHI>
InChI=1S/C21H27N3S/c1-3-22-12-14-23(15-13-22)17(2)16-24-18-8-4-6-10-20(18)25-21-11-7-5-9-19(21)24/h4-11,17H,3,12-16H2,1-2H3

> <PUBCHEM_IUPAC_INCHIKEY>
NJMPBWJSNSMVTD-UHFFFAOYSA-N

> <PUBCHEM_XLOGP3>
5

> <PUBCHEM_EXACT_MASS>
353.19256905

> <PUBCHEM_MOLECULAR_FORMULA>
C21H27N3S

> <PUBCHEM_MOLECULAR_WEIGHT>
353.5

> <PUBCHEM_SMILES>
CCN1CCN(CC1)C(C)CN2C3=CC=CC=C3SC4=CC=CC=C42

> <PUBCHEM_OPENEYE_CAN_SMILES>
CCN1CCN(CC1)C(C)CN2C3=CC=CC=C3SC4=CC=CC=C42

> <PUBCHEM_OPENEYE_ISO_SMILES>
CCN1CCN(CC1)C(C)CN2C3=CC=CC=C3SC4=CC=CC=C42

> <PUBCHEM_CACTVS_TPSA>
35

> <PUBCHEM_MONOISOTOPIC_WEIGHT>
353.19256905

> <PUBCHEM_TOTAL_CHARGE>
0

> <PUBCHEM_HEAVY_ATOM_COUNT>
25

> <PUBCHEM_ATOM_DEF_STEREO_COUNT>
0

> <PUBCHEM_ATOM_UDEF_STEREO_COUNT>
1

> <PUBCHEM_BOND_DEF_STEREO_COUNT>
0

> <PUBCHEM_BOND_UDEF_STEREO_COUNT>
0

> <PUBCHEM_ISOTOPIC_ATOM_COUNT>
0

> <PUBCHEM_COMPONENT_COUNT>
1

> <PUBCHEM_CACTVS_TAUTO_COUNT>
-1

> <PUBCHEM_COORDINATE_TYPE>
1
5
255

> <PUBCHEM_BONDANNOTATIONS>
13  16  8
13  18  8
14  17  8
14  19  8
16  20  8
17  21  8
18  22  8
19  23  8
20  24  8
21  25  8
22  24  8
23  25  8
5  11  3

$$$$
