lig
 OpenBabel04152517582D

 52 55  0  0  1  0  0  0  0  0999 V2000
    3.8495   -3.2857    0.0000 S   0  0  0  0  0  0  0  0  0  0  0  0
    4.5640    0.4268    0.0000 N   0  0  0  0  0  0  0  0  0  0  0  0
    4.5640    2.0768    0.0000 N   0  0  0  0  0  0  0  0  0  0  0  0
    3.8495   -1.6357    0.0000 N   0  0  0  0  0  0  0  0  0  0  0  0
    4.5640   -0.3982    0.0000 C   0  0  3  0  0  0  0  0  0  0  0  0
    3.8495    0.8393    0.0000 C   0  0  0  0  0  0  0  0  0  0  0  0
    5.2784    0.8393    0.0000 C   0  0  0  0  0  0  0  0  0  0  0  0
    3.8495    1.6643    0.0000 C   0  0  0  0  0  0  0  0  0  0  0  0
    5.2784    1.6643    0.0000 C   0  0  0  0  0  0  0  0  0  0  0  0
    3.8495   -0.8107    0.0000 C   0  0  0  0  0  0  0  0  0  0  0  0
    5.2784   -0.8107    0.0000 C   0  0  0  0  0  0  0  0  0  0  0  0
    4.5640    2.9018    0.0000 C   0  0  0  0  0  0  0  0  0  0  0  0
    4.5640   -2.0482    0.0000 C   0  0  0  0  0  0  0  0  0  0  0  0
    3.1350   -2.0482    0.0000 C   0  0  0  0  0  0  0  0  0  0  0  0
    5.2784    3.3143    0.0000 C   0  0  0  0  0  0  0  0  0  0  0  0
    4.5640   -2.8732    0.0000 C   0  0  0  0  0  0  0  0  0  0  0  0
    3.1350   -2.8732    0.0000 C   0  0  0  0  0  0  0  0  0  0  0  0
    5.3015   -1.6071    0.0000 C   0  0  0  0  0  0  0  0  0  0  0  0
    2.3975   -1.6071    0.0000 C   0  0  0  0  0  0  0  0  0  0  0  0
    5.3015   -3.3143    0.0000 C   0  0  0  0  0  0  0  0  0  0  0  0
    2.3975   -3.3143    0.0000 C   0  0  0  0  0  0  0  0  0  0  0  0
    6.0490   -2.0310    0.0000 C   0  0  0  0  0  0  0  0  0  0  0  0
    1.6500   -2.0310    0.0000 C   0  0  0  0  0  0  0  0  0  0  0  0
    6.0490   -2.8904    0.0000 C   0  0  0  0  0  0  0  0  0  0  0  0
    1.6500   -2.8904    0.0000 C   0  0  0  0  0  0  0  0  0  0  0  0
    5.0069   -0.1425    0.0000 H   0  0  0  0  0  0  0  0  0  0  0  0
    3.3458    0.9281    0.0000 H   0  0  0  0  0  0  0  0  0  0  0  0
    3.6746    0.3586    0.0000 H   0  0  0  0  0  0  0  0  0  0  0  0
    5.4533    0.3586    0.0000 H   0  0  0  0  0  0  0  0  0  0  0  0
    5.7822    0.9281    0.0000 H   0  0  0  0  0  0  0  0  0  0  0  0
    3.6746    2.1449    0.0000 H   0  0  0  0  0  0  0  0  0  0  0  0
    3.3458    1.5755    0.0000 H   0  0  0  0  0  0  0  0  0  0  0  0
    5.7822    1.5755    0.0000 H   0  0  0  0  0  0  0  0  0  0  0  0
    5.4533    2.1449    0.0000 H   0  0  0  0  0  0  0  0  0  0  0  0
    3.6746   -0.3301    0.0000 H   0  0  0  0  0  0  0  0  0  0  0  0
    3.3458   -0.8995    0.0000 H   0  0  0  0  0  0  0  0  0  0  0  0
    5.0227   -1.2537    0.0000 H   0  0  0  0  0  0  0  0  0  0  0  0
    5.7214   -1.0665    0.0000 H   0  0  0  0  0  0  0  0  0  0  0  0
    5.5342   -0.3677    0.0000 H   0  0  0  0  0  0  0  0  0  0  0  0
    4.3890    3.3824    0.0000 H   0  0  0  0  0  0  0  0  0  0  0  0
    4.0602    2.8130    0.0000 H   0  0  0  0  0  0  0  0  0  0  0  0
    5.5342    2.8713    0.0000 H   0  0  0  0  0  0  0  0  0  0  0  0
    5.7214    3.5700    0.0000 H   0  0  0  0  0  0  0  0  0  0  0  0
    5.0227    3.7573    0.0000 H   0  0  0  0  0  0  0  0  0  0  0  0
    5.2955   -1.0956    0.0000 H   0  0  0  0  0  0  0  0  0  0  0  0
    2.4034   -1.0956    0.0000 H   0  0  0  0  0  0  0  0  0  0  0  0
    5.2955   -3.8258    0.0000 H   0  0  0  0  0  0  0  0  0  0  0  0
    2.4034   -3.8258    0.0000 H   0  0  0  0  0  0  0  0  0  0  0  0
    6.4909   -1.7736    0.0000 H   0  0  0  0  0  0  0  0  0  0  0  0
    1.2080   -1.7736    0.0000 H   0  0  0  0  0  0  0  0  0  0  0  0
    6.4909   -3.1479    0.0000 H   0  0  0  0  0  0  0  0  0  0  0  0
    1.2080   -3.1479    0.0000 H   0  0  0  0  0  0  0  0  0  0  0  0
  1 16  1  0  0  0  0
  1 17  1  0  0  0  0
  2  5  1  0  0  0  0
  2  6  1  0  0  0  0
  2  7  1  0  0  0  0
  3  8  1  0  0  0  0
  3  9  1  0  0  0  0
  3 12  1  0  0  0  0
  4 10  1  0  0  0  0
  4 13  1  0  0  0  0
  4 14  1  0  0  0  0
  5 10  1  0  0  0  0
  5 11  1  0  0  0  0
  5 26  1  0  0  0  0
  6  8  1  0  0  0  0
  6 27  1  0  0  0  0
  6 28  1  0  0  0  0
  7  9  1  0  0  0  0
  7 29  1  0  0  0  0
  7 30  1  0  0  0  0
  8 31  1  0  0  0  0
  8 32  1  0  0  0  0
  9 33  1  0  0  0  0
  9 34  1  0  0  0  0
 10 35  1  0  0  0  0
 10 36  1  0  0  0  0
 11 37  1  0  0  0  0
 11 38  1  0  0  0  0
 11 39  1  0  0  0  0
 12 15  1  0  0  0  0
 12 40  1  0  0  0  0
 12 41  1  0  0  0  0
 13 16  1  0  0  0  0
 13 18  2  0  0  0  0
 14 17  1  0  0  0  0
 14 19  2  0  0  0  0
 15 42  1  0  0  0  0
 15 43  1  0  0  0  0
 15 44  1  0  0  0  0
 16 20  2  0  0  0  0
 17 21  2  0  0  0  0
 18 22  1  0  0  0  0
 18 45  1  0  0  0  0
 19 23  1  0  0  0  0
 19 46  1  0  0  0  0
 20 24  1  0  0  0  0
 20 47  1  0  0  0  0
 21 25  1  0  0  0  0
 21 48  1  0  0  0  0
 22 24  2  0  0  0  0
 22 49  1  0  0  0  0
 23 25  2  0  0  0  0
 23 50  1  0  0  0  0
 24 51  1  0  0  0  0
 25 52  1  0  0  0  0
M  END
