3066532
  Mrv15b2304152517582D          

 52 55  0  0  1  0            999 V2000
    4.6814   -3.3334    0.0000 S   0  0  0  0  0  0  0  0  0  0  0  0
    3.9670    0.3791    0.0000 N   0  0  0  0  0  0  0  0  0  0  0  0
    3.9670    2.0291    0.0000 N   0  0  0  0  0  0  0  0  0  0  0  0
    4.6814   -1.6834    0.0000 N   0  0  0  0  0  0  0  0  0  0  0  0
    3.9670   -0.4459    0.0000 C   0  0  0  0  0  0  0  0  0  0  0  0
    3.2525    0.7916    0.0000 C   0  0  0  0  0  0  0  0  0  0  0  0
    4.6814    0.7916    0.0000 C   0  0  0  0  0  0  0  0  0  0  0  0
    3.2525    1.6166    0.0000 C   0  0  0  0  0  0  0  0  0  0  0  0
    4.6814    1.6166    0.0000 C   0  0  0  0  0  0  0  0  0  0  0  0
    4.6814   -0.8584    0.0000 C   0  0  0  0  0  0  0  0  0  0  0  0
    3.2525   -0.8584    0.0000 C   0  0  0  0  0  0  0  0  0  0  0  0
    3.9670    2.8541    0.0000 C   0  0  0  0  0  0  0  0  0  0  0  0
    5.3959   -2.0959    0.0000 C   0  0  0  0  0  0  0  0  0  0  0  0
    3.9670   -2.0959    0.0000 C   0  0  0  0  0  0  0  0  0  0  0  0
    4.6814    3.2666    0.0000 C   0  0  0  0  0  0  0  0  0  0  0  0
    5.3959   -2.9209    0.0000 C   0  0  0  0  0  0  0  0  0  0  0  0
    3.9670   -2.9209    0.0000 C   0  0  0  0  0  0  0  0  0  0  0  0
    6.1104   -1.6834    0.0000 C   0  0  0  0  0  0  0  0  0  0  0  0
    3.2525   -1.6834    0.0000 C   0  0  0  0  0  0  0  0  0  0  0  0
    6.1104   -3.3334    0.0000 C   0  0  0  0  0  0  0  0  0  0  0  0
    3.2525   -3.3334    0.0000 C   0  0  0  0  0  0  0  0  0  0  0  0
    6.8248   -2.0959    0.0000 C   0  0  0  0  0  0  0  0  0  0  0  0
    2.5380   -2.0959    0.0000 C   0  0  0  0  0  0  0  0  0  0  0  0
    6.8248   -2.9209    0.0000 C   0  0  0  0  0  0  0  0  0  0  0  0
    2.5380   -2.9209    0.0000 C   0  0  0  0  0  0  0  0  0  0  0  0
    4.6814   -0.0334    0.0000 H   0  0  0  0  0  0  0  0  0  0  0  0
    2.4289    0.7436    0.0000 H   0  0  0  0  0  0  0  0  0  0  0  0
    2.7991    0.1023    0.0000 H   0  0  0  0  0  0  0  0  0  0  0  0
    5.4567    0.5095    0.0000 H   0  0  0  0  0  0  0  0  0  0  0  0
    5.4567    1.0738    0.0000 H   0  0  0  0  0  0  0  0  0  0  0  0
    2.7991    2.3059    0.0000 H   0  0  0  0  0  0  0  0  0  0  0  0
    2.4289    1.6646    0.0000 H   0  0  0  0  0  0  0  0  0  0  0  0
    5.3408    2.1125    0.0000 H   0  0  0  0  0  0  0  0  0  0  0  0
    4.8522    2.4238    0.0000 H   0  0  0  0  0  0  0  0  0  0  0  0
    5.4567   -1.1405    0.0000 H   0  0  0  0  0  0  0  0  0  0  0  0
    5.4567   -0.5762    0.0000 H   0  0  0  0  0  0  0  0  0  0  0  0
    3.2525   -0.0334    0.0000 H   0  0  0  0  0  0  0  0  0  0  0  0
    2.5380   -0.4459    0.0000 H   0  0  0  0  0  0  0  0  0  0  0  0
    2.5380   -1.2709    0.0000 H   0  0  0  0  0  0  0  0  0  0  0  0
    3.5136    3.5434    0.0000 H   0  0  0  0  0  0  0  0  0  0  0  0
    3.1433    2.9021    0.0000 H   0  0  0  0  0  0  0  0  0  0  0  0
    5.5013    3.1745    0.0000 H   0  0  0  0  0  0  0  0  0  0  0  0
    5.0206    4.0187    0.0000 H   0  0  0  0  0  0  0  0  0  0  0  0
    4.0696    3.8201    0.0000 H   0  0  0  0  0  0  0  0  0  0  0  0
    6.5818   -1.0064    0.0000 H   0  0  0  0  0  0  0  0  0  0  0  0
    3.9670   -1.2709    0.0000 H   0  0  0  0  0  0  0  0  0  0  0  0
    6.1104   -4.1584    0.0000 H   0  0  0  0  0  0  0  0  0  0  0  0
    3.2525   -4.1584    0.0000 H   0  0  0  0  0  0  0  0  0  0  0  0
    7.5393   -1.6834    0.0000 H   0  0  0  0  0  0  0  0  0  0  0  0
    1.7130   -2.0959    0.0000 H   0  0  0  0  0  0  0  0  0  0  0  0
    7.5393   -3.3334    0.0000 H   0  0  0  0  0  0  0  0  0  0  0  0
    1.8235   -3.3334    0.0000 H   0  0  0  0  0  0  0  0  0  0  0  0
  1 16  1  0  0  0  0
  1 17  1  0  0  0  0
  2  5  1  0  0  0  0
  2  6  1  0  0  0  0
  2  7  1  0  0  0  0
  3  8  1  0  0  0  0
  3  9  1  0  0  0  0
  3 12  1  0  0  0  0
  4 10  1  0  0  0  0
  4 13  1  0  0  0  0
  4 14  1  0  0  0  0
  5 10  1  0  0  0  0
  5 11  1  0  0  0  0
  5 26  1  0  0  0  0
  6  8  1  0  0  0  0
  6 27  1  0  0  0  0
  6 28  1  0  0  0  0
  7  9  1  0  0  0  0
  7 29  1  0  0  0  0
  7 30  1  0  0  0  0
  8 31  1  0  0  0  0
  8 32  1  0  0  0  0
  9 33  1  0  0  0  0
  9 34  1  0  0  0  0
 10 35  1  0  0  0  0
 10 36  1  0  0  0  0
 11 37  1  0  0  0  0
 11 38  1  0  0  0  0
 11 39  1  0  0  0  0
 12 15  1  0  0  0  0
 12 40  1  0  0  0  0
 12 41  1  0  0  0  0
 13 16  1  0  0  0  0
 13 18  2  0  0  0  0
 14 17  1  0  0  0  0
 14 19  2  0  0  0  0
 15 42  1  0  0  0  0
 15 43  1  0  0  0  0
 15 44  1  0  0  0  0
 16 20  2  0  0  0  0
 17 21  2  0  0  0  0
 18 22  1  0  0  0  0
 18 45  1  0  0  0  0
 19 23  1  0  0  0  0
 19 46  1  0  0  0  0
 20 24  1  0  0  0  0
 20 47  1  0  0  0  0
 21 25  1  0  0  0  0
 21 48  1  0  0  0  0
 22 24  2  0  0  0  0
 22 49  1  0  0  0  0
 23 25  2  0  0  0  0
 23 50  1  0  0  0  0
 24 51  1  0  0  0  0
 25 52  1  0  0  0  0
M  END
