@<TRIPOS>MOLECULE
lig
 49 51 0 0 0
SMALL
GASTEIGER

@<TRIPOS>ATOM
      1 S          -4.9204   -2.3170    2.9993 S.3     1  UNL11      -0.1582
      2 F           6.0267    6.3297   -2.7619 F       1  UNL11      -0.2025
      3 F           5.6913    8.7167   -1.5656 F       1  UNL11      -0.2025
      4 N          -2.3269   -2.1742    1.1324 N.3     1  UNL11      -0.3005
      5 N           2.6876    3.5300   -0.1307 N.pl3   1  UNL11      -0.3373
      6 C          -1.6016   -1.0102    0.6199 C.3     1  UNL11       0.0029
      7 C          -3.6825   -2.1399    0.5138 C.3     1  UNL11       0.0079
      8 C          -2.2475   -2.3500    2.6316 C.3     1  UNL11       0.0079
      9 C          -0.0869   -1.1860    0.8909 C.3     1  UNL11      -0.0149
     10 C          -4.8732   -2.8404    1.2392 C.3     1  UNL11       0.0065
     11 C          -3.3018   -1.6413    3.5099 C.3     1  UNL11       0.0065
     12 C           0.6495    0.0579    0.7385 C.ar    1  UNL11      -0.0460
     13 C           2.0270    4.6494   -0.7095 C.3     1  UNL11       0.0432
     14 C           1.2756    0.1796   -0.5351 C.ar    1  UNL11      -0.0568
     15 C           0.7636    1.0269    1.7895 C.ar    1  UNL11      -0.0568
     16 C           2.0425    2.3791    0.1921 C.ar    1  UNL11       0.0276
     17 C           1.9914    1.3703   -0.8184 C.ar    1  UNL11      -0.0406
     18 C           1.4890    2.2274    1.5048 C.ar    1  UNL11      -0.0406
     19 C           2.9925    5.7211   -0.9351 C.ar    1  UNL11      -0.0247
     20 C           0.9313    5.1412    0.2385 C.3     1  UNL11      -0.0425
     21 C           4.0850    5.5085   -1.7677 C.ar    1  UNL11      -0.0187
     22 C           2.8192    6.9541   -0.3171 C.ar    1  UNL11      -0.0539
     23 C           5.0042    6.5288   -1.9825 C.ar    1  UNL11       0.1587
     24 C           3.7384    7.9744   -0.5319 C.ar    1  UNL11      -0.0233
     25 C           4.8309    7.7617   -1.3646 C.ar    1  UNL11       0.1584
     26 H          -1.9583   -0.1103    1.1209 H       1  UNL11       0.0430
     27 H          -1.7675   -0.8818   -0.4498 H       1  UNL11       0.0430
     28 H          -3.9519   -1.1086    0.2859 H       1  UNL11       0.0434
     29 H          -3.5951   -2.5448   -0.4945 H       1  UNL11       0.0434
     30 H          -2.2292   -3.4129    2.8723 H       1  UNL11       0.0434
     31 H          -1.2806   -1.9477    2.9340 H       1  UNL11       0.0434
     32 H           0.0592   -1.5735    1.8992 H       1  UNL11       0.0326
     33 H           0.2493   -1.9143    0.1529 H       1  UNL11       0.0326
     34 H          -5.8085   -2.5637    0.7526 H       1  UNL11       0.0389
     35 H          -4.6880   -3.9143    1.2181 H       1  UNL11       0.0389
     36 H          -3.2772   -0.5694    3.3135 H       1  UNL11       0.0389
     37 H          -3.1437   -1.8199    4.5735 H       1  UNL11       0.0389
     38 H           1.5807    4.3565   -1.6598 H       1  UNL11       0.0545
     39 H           1.2107   -0.5693   -1.2245 H       1  UNL11       0.0621
     40 H           0.3436    0.8667    2.7051 H       1  UNL11       0.0621
     41 H           3.2212    3.8242    0.6240 H       1  UNL11       0.1467
     42 H           2.4560    1.5027   -1.7168 H       1  UNL11       0.0636
     43 H           1.6081    2.9514    2.2134 H       1  UNL11       0.0636
     44 H           0.4253    5.9988   -0.2049 H       1  UNL11       0.0251
     45 H           0.2105    4.3411    0.4069 H       1  UNL11       0.0251
     46 H           1.3777    5.4342    1.1888 H       1  UNL11       0.0251
     47 H           4.2121    4.6037   -2.2212 H       1  UNL11       0.0650
     48 H           2.0175    7.1102    0.2939 H       1  UNL11       0.0622
     49 H           3.6113    8.8792   -0.0784 H       1  UNL11       0.0647
@<TRIPOS>BOND
     1     1    10    1
     2     1    11    1
     3     2    23    1
     4     3    25    1
     5     4     6    1
     6     4     7    1
     7     4     8    1
     8     5    13    1
     9     5    16    1
    10     5    41    1
    11     6     9    1
    12     6    26    1
    13     6    27    1
    14     7    10    1
    15     7    28    1
    16     7    29    1
    17     8    11    1
    18     8    30    1
    19     8    31    1
    20     9    12    1
    21     9    32    1
    22     9    33    1
    23    10    34    1
    24    10    35    1
    25    11    36    1
    26    11    37    1
    27    12    14   ar
    28    12    15   ar
    29    13    19    1
    30    13    20    1
    31    13    38    1
    32    14    17   ar
    33    14    39    1
    34    15    18   ar
    35    15    40    1
    36    16    17   ar
    37    16    18   ar
    38    17    42    1
    39    18    43    1
    40    19    21   ar
    41    19    22   ar
    42    20    44    1
    43    20    45    1
    44    20    46    1
    45    21    23   ar
    46    21    47    1
    47    22    24   ar
    48    22    48    1
    49    23    25   ar
    50    24    25   ar
    51    24    49    1
