60302500
  Mrv15b2304042505573D          

 49 51  0  0  1  0            999 V2000
   -4.9204   -2.3170    2.9993 S   0  0  0  0  0  0  0  0  0  0  0  0
    6.0267    6.3297   -2.7619 F   0  0  0  0  0  0  0  0  0  0  0  0
    5.6913    8.7167   -1.5656 F   0  0  0  0  0  0  0  0  0  0  0  0
   -2.3269   -2.1742    1.1324 N   0  0  2  0  0  0  0  0  0  0  0  0
    2.6876    3.5300   -0.1307 N   0  0  2  0  0  0  0  0  0  0  0  0
   -1.6016   -1.0102    0.6199 C   0  0  2  0  0  0  0  0  0  0  0  0
   -3.6825   -2.1399    0.5138 C   0  0  1  0  0  0  0  0  0  0  0  0
   -2.2475   -2.3500    2.6316 C   0  0  1  0  0  0  0  0  0  0  0  0
   -0.0869   -1.1860    0.8909 C   0  0  1  0  0  0  0  0  0  0  0  0
   -4.8732   -2.8404    1.2392 C   0  0  2  0  0  0  0  0  0  0  0  0
   -3.3018   -1.6413    3.5099 C   0  0  1  0  0  0  0  0  0  0  0  0
    0.6495    0.0579    0.7385 C   0  0  0  0  0  0  0  0  0  0  0  0
    2.0270    4.6494   -0.7095 C   0  0  2  0  0  0  0  0  0  0  0  0
    1.2756    0.1796   -0.5351 C   0  0  0  0  0  0  0  0  0  0  0  0
    0.7636    1.0269    1.7895 C   0  0  0  0  0  0  0  0  0  0  0  0
    2.0425    2.3791    0.1921 C   0  0  0  0  0  0  0  0  0  0  0  0
    1.9914    1.3703   -0.8184 C   0  0  0  0  0  0  0  0  0  0  0  0
    1.4890    2.2274    1.5048 C   0  0  0  0  0  0  0  0  0  0  0  0
    2.9925    5.7211   -0.9351 C   0  0  0  0  0  0  0  0  0  0  0  0
    0.9313    5.1412    0.2385 C   0  0  0  0  0  0  0  0  0  0  0  0
    4.0850    5.5085   -1.7677 C   0  0  0  0  0  0  0  0  0  0  0  0
    2.8192    6.9541   -0.3171 C   0  0  0  0  0  0  0  0  0  0  0  0
    5.0042    6.5288   -1.9825 C   0  0  0  0  0  0  0  0  0  0  0  0
    3.7384    7.9744   -0.5319 C   0  0  0  0  0  0  0  0  0  0  0  0
    4.8309    7.7617   -1.3646 C   0  0  0  0  0  0  0  0  0  0  0  0
   -1.9583   -0.1103    1.1209 H   0  0  0  0  0  0  0  0  0  0  0  0
   -1.7675   -0.8818   -0.4498 H   0  0  0  0  0  0  0  0  0  0  0  0
   -3.9519   -1.1086    0.2859 H   0  0  0  0  0  0  0  0  0  0  0  0
   -3.5951   -2.5448   -0.4945 H   0  0  0  0  0  0  0  0  0  0  0  0
   -2.2292   -3.4129    2.8723 H   0  0  0  0  0  0  0  0  0  0  0  0
   -1.2806   -1.9477    2.9340 H   0  0  0  0  0  0  0  0  0  0  0  0
    0.0592   -1.5735    1.8992 H   0  0  0  0  0  0  0  0  0  0  0  0
    0.2493   -1.9143    0.1529 H   0  0  0  0  0  0  0  0  0  0  0  0
   -5.8085   -2.5637    0.7526 H   0  0  0  0  0  0  0  0  0  0  0  0
   -4.6880   -3.9143    1.2181 H   0  0  0  0  0  0  0  0  0  0  0  0
   -3.2772   -0.5694    3.3135 H   0  0  0  0  0  0  0  0  0  0  0  0
   -3.1437   -1.8199    4.5735 H   0  0  0  0  0  0  0  0  0  0  0  0
    1.5807    4.3565   -1.6598 H   0  0  0  0  0  0  0  0  0  0  0  0
    1.2107   -0.5693   -1.2245 H   0  0  0  0  0  0  0  0  0  0  0  0
    0.3436    0.8667    2.7051 H   0  0  0  0  0  0  0  0  0  0  0  0
    3.2212    3.8242    0.6240 H   0  0  0  0  0  0  0  0  0  0  0  0
    2.4560    1.5027   -1.7168 H   0  0  0  0  0  0  0  0  0  0  0  0
    1.6081    2.9514    2.2134 H   0  0  0  0  0  0  0  0  0  0  0  0
    0.4253    5.9988   -0.2049 H   0  0  0  0  0  0  0  0  0  0  0  0
    0.2105    4.3411    0.4069 H   0  0  0  0  0  0  0  0  0  0  0  0
    1.3777    5.4342    1.1888 H   0  0  0  0  0  0  0  0  0  0  0  0
    4.2121    4.6037   -2.2212 H   0  0  0  0  0  0  0  0  0  0  0  0
    2.0175    7.1102    0.2939 H   0  0  0  0  0  0  0  0  0  0  0  0
    3.6113    8.8792   -0.0784 H   0  0  0  0  0  0  0  0  0  0  0  0
  1 10  1  0  0  0  0
  1 11  1  0  0  0  0
  2 23  1  0  0  0  0
  3 25  1  0  0  0  0
  4  6  1  0  0  0  0
  4  7  1  0  0  0  0
  4  8  1  0  0  0  0
  5 13  1  0  0  0  0
  5 16  1  0  0  0  0
  5 41  1  0  0  0  0
  6  9  1  0  0  0  0
  6 26  1  0  0  0  0
  6 27  1  0  0  0  0
  7 10  1  0  0  0  0
  7 28  1  0  0  0  0
  7 29  1  0  0  0  0
  8 11  1  0  0  0  0
  8 30  1  0  0  0  0
  8 31  1  0  0  0  0
  9 12  1  0  0  0  0
  9 32  1  0  0  0  0
  9 33  1  0  0  0  0
 10 34  1  0  0  0  0
 10 35  1  0  0  0  0
 11 36  1  0  0  0  0
 11 37  1  0  0  0  0
 12 14  2  0  0  0  0
 12 15  1  0  0  0  0
 13 19  1  0  0  0  0
 13 20  1  0  0  0  0
 13 38  1  0  0  0  0
 14 17  1  0  0  0  0
 14 39  1  0  0  0  0
 15 18  2  0  0  0  0
 15 40  1  0  0  0  0
 16 17  2  0  0  0  0
 16 18  1  0  0  0  0
 17 42  1  0  0  0  0
 18 43  1  0  0  0  0
 19 21  2  0  0  0  0
 19 22  1  0  0  0  0
 20 44  1  0  0  0  0
 20 45  1  0  0  0  0
 20 46  1  0  0  0  0
 21 23  1  0  0  0  0
 21 47  1  0  0  0  0
 22 24  2  0  0  0  0
 22 48  1  0  0  0  0
 23 25  2  0  0  0  0
 24 25  1  0  0  0  0
 24 49  1  0  0  0  0
M  END
