60302500
  MJ221101                      

 49 51  0  0  1  0  0  0  0  0999 V2000
    3.7748    2.7524    0.0000 S   0  0  0  0  0  0  0  0  0  0  0  0
   -2.6554   -4.2601    0.0000 F   0  0  0  0  0  0  0  0  0  0  0  0
   -4.0843   -3.4351    0.0000 F   0  0  0  0  0  0  0  0  0  0  0  0
    2.3458    1.9274    0.0000 N   0  0  0  0  0  0  0  0  0  0  0  0
   -1.2265   -0.9601    0.0000 N   0  0  0  0  0  0  0  0  0  0  0  0
    1.6314    1.5149    0.0000 C   0  0  0  0  0  0  0  0  0  0  0  0
    3.0603    1.5149    0.0000 C   0  0  0  0  0  0  0  0  0  0  0  0
    2.3458    2.7524    0.0000 C   0  0  0  0  0  0  0  0  0  0  0  0
    1.6314    0.6899    0.0000 C   0  0  0  0  0  0  0  0  0  0  0  0
    3.7748    1.9274    0.0000 C   0  0  0  0  0  0  0  0  0  0  0  0
    3.0603    3.1649    0.0000 C   0  0  0  0  0  0  0  0  0  0  0  0
    0.9169    0.2774    0.0000 C   0  0  0  0  0  0  0  0  0  0  0  0
   -1.2265   -1.7851    0.0000 C   0  0  0  0  0  0  0  0  0  0  0  0
    0.9169   -0.5476    0.0000 C   0  0  0  0  0  0  0  0  0  0  0  0
    0.2025    0.6899    0.0000 C   0  0  0  0  0  0  0  0  0  0  0  0
   -0.5120   -0.5476    0.0000 C   0  0  0  0  0  0  0  0  0  0  0  0
    0.2025   -0.9601    0.0000 C   0  0  0  0  0  0  0  0  0  0  0  0
   -0.5120    0.2774    0.0000 C   0  0  0  0  0  0  0  0  0  0  0  0
   -1.9410   -2.1976    0.0000 C   0  0  0  0  0  0  0  0  0  0  0  0
   -0.5120   -2.1976    0.0000 C   0  0  0  0  0  0  0  0  0  0  0  0
   -1.9410   -3.0226    0.0000 C   0  0  0  0  0  0  0  0  0  0  0  0
   -2.6554   -1.7851    0.0000 C   0  0  0  0  0  0  0  0  0  0  0  0
   -2.6554   -3.4351    0.0000 C   0  0  0  0  0  0  0  0  0  0  0  0
   -3.3699   -2.1976    0.0000 C   0  0  0  0  0  0  0  0  0  0  0  0
   -3.3699   -3.0226    0.0000 C   0  0  0  0  0  0  0  0  0  0  0  0
    1.1781    2.2042    0.0000 H   0  0  0  0  0  0  0  0  0  0  0  0
    0.8078    1.5629    0.0000 H   0  0  0  0  0  0  0  0  0  0  0  0
    2.6901    0.7776    0.0000 H   0  0  0  0  0  0  0  0  0  0  0  0
    3.4306    0.7776    0.0000 H   0  0  0  0  0  0  0  0  0  0  0  0
    1.8925    3.4417    0.0000 H   0  0  0  0  0  0  0  0  0  0  0  0
    1.5223    2.8003    0.0000 H   0  0  0  0  0  0  0  0  0  0  0  0
    2.0847    0.0005    0.0000 H   0  0  0  0  0  0  0  0  0  0  0  0
    2.4550    0.6419    0.0000 H   0  0  0  0  0  0  0  0  0  0  0  0
    4.2282    1.2381    0.0000 H   0  0  0  0  0  0  0  0  0  0  0  0
    4.5984    1.8794    0.0000 H   0  0  0  0  0  0  0  0  0  0  0  0
    3.4306    3.9022    0.0000 H   0  0  0  0  0  0  0  0  0  0  0  0
    2.6901    3.9022    0.0000 H   0  0  0  0  0  0  0  0  0  0  0  0
   -1.9410   -1.3726    0.0000 H   0  0  0  0  0  0  0  0  0  0  0  0
    1.6314   -0.9601    0.0000 H   0  0  0  0  0  0  0  0  0  0  0  0
    0.2025    1.5149    0.0000 H   0  0  0  0  0  0  0  0  0  0  0  0
   -1.9410   -0.5476    0.0000 H   0  0  0  0  0  0  0  0  0  0  0  0
    0.2025   -1.7851    0.0000 H   0  0  0  0  0  0  0  0  0  0  0  0
   -1.2265    0.6899    0.0000 H   0  0  0  0  0  0  0  0  0  0  0  0
   -1.2265   -2.6101    0.0000 H   0  0  0  0  0  0  0  0  0  0  0  0
   -0.5120   -3.0226    0.0000 H   0  0  0  0  0  0  0  0  0  0  0  0
    0.2025   -2.6101    0.0000 H   0  0  0  0  0  0  0  0  0  0  0  0
   -1.5285   -3.7371    0.0000 H   0  0  0  0  0  0  0  0  0  0  0  0
   -3.0679   -1.0706    0.0000 H   0  0  0  0  0  0  0  0  0  0  0  0
   -4.0843   -1.7851    0.0000 H   0  0  0  0  0  0  0  0  0  0  0  0
  1 10  1  0  0  0  0
  1 11  1  0  0  0  0
  2 23  1  0  0  0  0
  3 25  1  0  0  0  0
  4  6  1  0  0  0  0
  4  7  1  0  0  0  0
  4  8  1  0  0  0  0
  5 13  1  0  0  0  0
  5 16  1  0  0  0  0
  5 41  1  0  0  0  0
  6  9  1  0  0  0  0
  6 26  1  0  0  0  0
  6 27  1  0  0  0  0
  7 10  1  0  0  0  0
  7 28  1  0  0  0  0
  7 29  1  0  0  0  0
  8 11  1  0  0  0  0
  8 30  1  0  0  0  0
  8 31  1  0  0  0  0
  9 12  1  0  0  0  0
  9 32  1  0  0  0  0
  9 33  1  0  0  0  0
 10 34  1  0  0  0  0
 10 35  1  0  0  0  0
 11 36  1  0  0  0  0
 11 37  1  0  0  0  0
 12 14  2  0  0  0  0
 12 15  1  0  0  0  0
 13 19  1  0  0  0  0
 13 20  1  6  0  0  0
 13 38  1  6  0  0  0
 14 17  1  0  0  0  0
 14 39  1  0  0  0  0
 15 18  2  0  0  0  0
 15 40  1  0  0  0  0
 16 17  2  0  0  0  0
 16 18  1  0  0  0  0
 17 42  1  0  0  0  0
 18 43  1  0  0  0  0
 19 21  2  0  0  0  0
 19 22  1  0  0  0  0
 20 44  1  0  0  0  0
 20 45  1  0  0  0  0
 20 46  1  0  0  0  0
 21 23  1  0  0  0  0
 21 47  1  0  0  0  0
 22 24  2  0  0  0  0
 22 48  1  0  0  0  0
 23 25  2  0  0  0  0
 24 25  1  0  0  0  0
 24 49  1  0  0  0  0
M  END
