60302500
  -OEChem-04042505563D

 49 51  0     1  0  0  0  0  0999 V2000
    7.7721    1.4580    0.3522 S   0  0  0  0  0  0  0  0  0  0  0  0
   -3.8761    2.3529    2.1502 F   0  0  0  0  0  0  0  0  0  0  0  0
   -4.6718    3.7345   -0.0711 F   0  0  0  0  0  0  0  0  0  0  0  0
    4.8303    0.4077   -0.2955 N   0  0  0  0  0  0  0  0  0  0  0  0
   -2.5591   -2.1537    0.4983 N   0  0  0  0  0  0  0  0  0  0  0  0
    3.4143    0.1667   -0.0074 C   0  0  0  0  0  0  0  0  0  0  0  0
    5.6710   -0.3143    0.6718 C   0  0  0  0  0  0  0  0  0  0  0  0
    5.1076    1.8521   -0.2845 C   0  0  0  0  0  0  0  0  0  0  0  0
    2.9754   -1.2032   -0.5255 C   0  0  0  0  0  0  0  0  0  0  0  0
    7.1565   -0.2468    0.3254 C   0  0  0  0  0  0  0  0  0  0  0  0
    6.5252    2.1827   -0.7460 C   0  0  0  0  0  0  0  0  0  0  0  0
    1.5134   -1.4549   -0.2549 C   0  0  0  0  0  0  0  0  0  0  0  0
   -3.5922   -1.7927   -0.4225 C   0  0  2  0  0  0  0  0  0  0  0  0
    0.5553   -1.0778   -1.1958 C   0  0  0  0  0  0  0  0  0  0  0  0
    1.1190   -2.0642    0.9363 C   0  0  0  0  0  0  0  0  0  0  0  0
   -1.1914   -1.9194    0.2454 C   0  0  0  0  0  0  0  0  0  0  0  0
   -0.7971   -1.3101   -0.9458 C   0  0  0  0  0  0  0  0  0  0  0  0
   -0.2333   -2.2965    1.1865 C   0  0  0  0  0  0  0  0  0  0  0  0
   -3.8820   -0.3101   -0.3283 C   0  0  0  0  0  0  0  0  0  0  0  0
   -4.8248   -2.6582   -0.1689 C   0  0  0  0  0  0  0  0  0  0  0  0
   -3.7428    0.3515    0.8918 C   0  0  0  0  0  0  0  0  0  0  0  0
   -4.2884    0.3947   -1.4614 C   0  0  0  0  0  0  0  0  0  0  0  0
   -4.0097    1.7177    0.9787 C   0  0  0  0  0  0  0  0  0  0  0  0
   -4.5554    1.7609   -1.3746 C   0  0  0  0  0  0  0  0  0  0  0  0
   -4.4159    2.4224   -0.1544 C   0  0  0  0  0  0  0  0  0  0  0  0
    3.1973    0.2771    1.0637 H   0  0  0  0  0  0  0  0  0  0  0  0
    2.7966    0.9179   -0.5189 H   0  0  0  0  0  0  0  0  0  0  0  0
    5.4122   -1.3782    0.6852 H   0  0  0  0  0  0  0  0  0  0  0  0
    5.5046    0.0569    1.6927 H   0  0  0  0  0  0  0  0  0  0  0  0
    4.9166    2.2834    0.7077 H   0  0  0  0  0  0  0  0  0  0  0  0
    4.4263    2.3560   -0.9823 H   0  0  0  0  0  0  0  0  0  0  0  0
    3.5510   -2.0177   -0.0716 H   0  0  0  0  0  0  0  0  0  0  0  0
    3.1620   -1.2763   -1.6053 H   0  0  0  0  0  0  0  0  0  0  0  0
    7.3472   -0.6790   -0.6631 H   0  0  0  0  0  0  0  0  0  0  0  0
    7.7328   -0.8284    1.0522 H   0  0  0  0  0  0  0  0  0  0  0  0
    6.6674    3.2682   -0.7553 H   0  0  0  0  0  0  0  0  0  0  0  0
    6.6976    1.8224   -1.7662 H   0  0  0  0  0  0  0  0  0  0  0  0
   -3.2881   -2.0403   -1.4476 H   0  0  0  0  0  0  0  0  0  0  0  0
    0.8509   -0.6000   -2.1263 H   0  0  0  0  0  0  0  0  0  0  0  0
    1.8561   -2.3602    1.6780 H   0  0  0  0  0  0  0  0  0  0  0  0
   -2.8044   -2.5475    1.4004 H   0  0  0  0  0  0  0  0  0  0  0  0
   -1.4927   -0.9925   -1.7142 H   0  0  0  0  0  0  0  0  0  0  0  0
   -0.5278   -2.7714    2.1189 H   0  0  0  0  0  0  0  0  0  0  0  0
   -5.2275   -2.4971    0.8380 H   0  0  0  0  0  0  0  0  0  0  0  0
   -5.6220   -2.4283   -0.8844 H   0  0  0  0  0  0  0  0  0  0  0  0
   -4.5814   -3.7226   -0.2612 H   0  0  0  0  0  0  0  0  0  0  0  0
   -3.4470   -0.1696    1.7978 H   0  0  0  0  0  0  0  0  0  0  0  0
   -4.4018   -0.1095   -2.4173 H   0  0  0  0  0  0  0  0  0  0  0  0
   -4.8718    2.3100   -2.2565 H   0  0  0  0  0  0  0  0  0  0  0  0
  1 10  1  0  0  0  0
  1 11  1  0  0  0  0
  2 23  1  0  0  0  0
  3 25  1  0  0  0  0
  4  6  1  0  0  0  0
  4  7  1  0  0  0  0
  4  8  1  0  0  0  0
  5 13  1  0  0  0  0
  5 16  1  0  0  0  0
  5 41  1  0  0  0  0
  6  9  1  0  0  0  0
  6 26  1  0  0  0  0
  6 27  1  0  0  0  0
  7 10  1  0  0  0  0
  7 28  1  0  0  0  0
  7 29  1  0  0  0  0
  8 11  1  0  0  0  0
  8 30  1  0  0  0  0
  8 31  1  0  0  0  0
  9 12  1  0  0  0  0
  9 32  1  0  0  0  0
  9 33  1  0  0  0  0
 10 34  1  0  0  0  0
 10 35  1  0  0  0  0
 11 36  1  0  0  0  0
 11 37  1  0  0  0  0
 12 14  2  0  0  0  0
 12 15  1  0  0  0  0
 13 19  1  0  0  0  0
 13 20  1  0  0  0  0
 13 38  1  0  0  0  0
 14 17  1  0  0  0  0
 14 39  1  0  0  0  0
 15 18  2  0  0  0  0
 15 40  1  0  0  0  0
 16 17  2  0  0  0  0
 16 18  1  0  0  0  0
 17 42  1  0  0  0  0
 18 43  1  0  0  0  0
 19 21  2  0  0  0  0
 19 22  1  0  0  0  0
 20 44  1  0  0  0  0
 20 45  1  0  0  0  0
 20 46  1  0  0  0  0
 21 23  1  0  0  0  0
 21 47  1  0  0  0  0
 22 24  2  0  0  0  0
 22 48  1  0  0  0  0
 23 25  2  0  0  0  0
 24 25  1  0  0  0  0
 24 49  1  0  0  0  0
M  END
> <PUBCHEM_COMPOUND_CID>
60302500

> <PUBCHEM_CONFORMER_RMSD>
1

> <PUBCHEM_CONFORMER_DIVERSEORDER>
1
28
146
40
132
143
144
5
96
53
35
69
75
135
38
80
114
34
98
21
37
77
41
64
120
4
110
97
109
104
19
93
57
139
136
121
23
16
26
128
25
123
126
59
46
90
155
137
76
54
6
151
140
24
82
125
30
42
74
138
71
95
103
32
133
22
56
92
20
7
113
66
85
78
87
100
83
48
145
154
33
14
147
101
58
9
84
102
116
131
118
142
86
156
149
111
51
141
15
150
127
134
119
148
94
10
99
157
122
73
79
112
153
44
47
89
124
105
61
81
117
72
108
67
36
55
152
39
91
62
45
27
52
31
49
70
12
106
130
18
43
88
63
65
3
68
17
115
50
158
129
11
29
107
13
8
2
60

> <PUBCHEM_MMFF94_PARTIAL_CHARGES>
32
1 -0.46
10 0.23
11 0.23
12 -0.14
13 0.51
14 -0.15
15 -0.15
16 0.1
17 -0.15
18 -0.15
19 -0.14
2 -0.19
21 -0.15
22 -0.15
23 0.19
24 -0.15
25 0.19
3 -0.19
39 0.15
4 -0.81
40 0.15
41 0.4
42 0.15
43 0.15
47 0.15
48 0.15
49 0.15
5 -0.87
6 0.27
7 0.27
8 0.27
9 0.14

> <PUBCHEM_EFFECTIVE_ROTOR_COUNT>
7.2

> <PUBCHEM_PHARMACOPHORE_FEATURES>
6
1 4 cation
1 5 cation
1 5 donor
6 1 4 7 8 10 11 rings
6 12 14 15 16 17 18 rings
6 19 21 22 23 24 25 rings

> <PUBCHEM_HEAVY_ATOM_COUNT>
25

> <PUBCHEM_ATOM_DEF_STEREO_COUNT>
0

> <PUBCHEM_ATOM_UDEF_STEREO_COUNT>
1

> <PUBCHEM_BOND_DEF_STEREO_COUNT>
0

> <PUBCHEM_BOND_UDEF_STEREO_COUNT>
0

> <PUBCHEM_ISOTOPIC_ATOM_COUNT>
0

> <PUBCHEM_COMPONENT_COUNT>
1

> <PUBCHEM_CACTVS_TAUTO_COUNT>
1

> <PUBCHEM_CONFORMER_ID>
039824A400000001

> <PUBCHEM_MMFF94_ENERGY>
64.792

> <PUBCHEM_FEATURE_SELFOVERLAP>
30.447

> <PUBCHEM_SHAPE_FINGERPRINT>
100830 39 18409447020562217572
10087517 78 18335980951775739436
105312 117 17418376908687157494
10670039 82 18341044202853400416
11101153 10 18194119844310131533
11135609 149 16270268989426453996
11135609 201 18412268298964503379
11477941 20 17915727864060331709
12107183 9 18118392943963924626
12390115 104 18335991921254322606
12422481 6 16950563255663724910
13103583 49 13190345625712316975
13167372 99 18408601479494418052
14251764 38 18337960107134526996
14251764 75 18053391994284188545
14347329 18 18341888593761417448
14466204 15 18408884053492366960
14739800 52 18338218423768566138
14950920 106 13912620354485077941
15021287 119 16732983158975141508
15119646 57 17346049878887920697
15163728 17 18059869324066222927
15183329 4 18334573569061731162
15604295 49 18056194916318166312
17780758 139 12540692600688178623
18927931 339 8862944987319006969
20058555 10 18340204210926272632
20281389 69 18335700585528227852
21033648 29 17314232151225959871
21236236 1 18409165545248013830
21279426 13 18341055134162418614
21315763 129 18339078302175651406
22122407 14 18190750924120207808
22956985 138 16819971279279705523
23522609 53 17459206178611756812
23559900 14 17915180113844001646
249057 25 17895479245033097230
2748736 6 18411412895982339912
283562 15 18334574677301528651
2838139 119 18272927233109981700
328310 18 17060065813296548025
4015057 19 13326563120999225786
4144715 1 18334867155773143218
4169191 19 18187080698529684668
484985 159 10737286904965417297
5104073 3 17895193264240398434
6299153 45 18262794061250543650
6327066 14 18337386020889901197
6328613 192 18188211009405298492
636775 72 18265893752255157456
7226269 152 18411699876906566544
7808743 9 18339358570350766057

> <PUBCHEM_SHAPE_MULTIPOLES>
493.83
18.79
3.48
1.26
32.42
1.59
0.18
12.78
0.13
-4.67
0.48
-1.22
0.32
-0.9

> <PUBCHEM_SHAPE_SELFOVERLAP>
1026.266

> <PUBCHEM_SHAPE_VOLUME>
285.2

> <PUBCHEM_COORDINATE_TYPE>
2
5
10

$$$$
