lig
 OpenBabel04042505583D

 49 51  0  0  1  0  0  0  0  0999 V2000
    7.7721    1.4580    0.3522 S   0  0  0  0  0  0  0  0  0  0  0  0
   -3.8761    2.3529    2.1502 F   0  0  0  0  0  0  0  0  0  0  0  0
   -4.6718    3.7345   -0.0711 F   0  0  0  0  0  0  0  0  0  0  0  0
    4.8303    0.4077   -0.2955 N   0  0  0  0  0  0  0  0  0  0  0  0
   -2.5591   -2.1537    0.4983 N   0  0  0  0  0  0  0  0  0  0  0  0
    3.4143    0.1667   -0.0074 C   0  0  0  0  0  0  0  0  0  0  0  0
    5.6710   -0.3143    0.6718 C   0  0  0  0  0  0  0  0  0  0  0  0
    5.1076    1.8521   -0.2845 C   0  0  0  0  0  0  0  0  0  0  0  0
    2.9754   -1.2032   -0.5255 C   0  0  0  0  0  0  0  0  0  0  0  0
    7.1565   -0.2468    0.3254 C   0  0  0  0  0  0  0  0  0  0  0  0
    6.5252    2.1827   -0.7460 C   0  0  0  0  0  0  0  0  0  0  0  0
    1.5134   -1.4549   -0.2549 C   0  0  0  0  0  0  0  0  0  0  0  0
   -3.5922   -1.7927   -0.4225 C   0  0  2  0  0  0  0  0  0  0  0  0
    0.5553   -1.0778   -1.1958 C   0  0  0  0  0  0  0  0  0  0  0  0
    1.1190   -2.0642    0.9363 C   0  0  0  0  0  0  0  0  0  0  0  0
   -1.1914   -1.9194    0.2454 C   0  0  0  0  0  0  0  0  0  0  0  0
   -0.7971   -1.3101   -0.9458 C   0  0  0  0  0  0  0  0  0  0  0  0
   -0.2333   -2.2965    1.1865 C   0  0  0  0  0  0  0  0  0  0  0  0
   -3.8820   -0.3101   -0.3283 C   0  0  0  0  0  0  0  0  0  0  0  0
   -4.8248   -2.6582   -0.1689 C   0  0  0  0  0  0  0  0  0  0  0  0
   -3.7428    0.3515    0.8918 C   0  0  0  0  0  0  0  0  0  0  0  0
   -4.2884    0.3947   -1.4614 C   0  0  0  0  0  0  0  0  0  0  0  0
   -4.0097    1.7177    0.9787 C   0  0  0  0  0  0  0  0  0  0  0  0
   -4.5554    1.7609   -1.3746 C   0  0  0  0  0  0  0  0  0  0  0  0
   -4.4159    2.4224   -0.1544 C   0  0  0  0  0  0  0  0  0  0  0  0
    3.1973    0.2771    1.0637 H   0  0  0  0  0  0  0  0  0  0  0  0
    2.7966    0.9179   -0.5189 H   0  0  0  0  0  0  0  0  0  0  0  0
    5.4122   -1.3782    0.6852 H   0  0  0  0  0  0  0  0  0  0  0  0
    5.5046    0.0569    1.6927 H   0  0  0  0  0  0  0  0  0  0  0  0
    4.9166    2.2834    0.7077 H   0  0  0  0  0  0  0  0  0  0  0  0
    4.4263    2.3560   -0.9823 H   0  0  0  0  0  0  0  0  0  0  0  0
    3.5510   -2.0177   -0.0716 H   0  0  0  0  0  0  0  0  0  0  0  0
    3.1620   -1.2763   -1.6053 H   0  0  0  0  0  0  0  0  0  0  0  0
    7.3472   -0.6790   -0.6631 H   0  0  0  0  0  0  0  0  0  0  0  0
    7.7328   -0.8284    1.0522 H   0  0  0  0  0  0  0  0  0  0  0  0
    6.6674    3.2682   -0.7553 H   0  0  0  0  0  0  0  0  0  0  0  0
    6.6976    1.8224   -1.7662 H   0  0  0  0  0  0  0  0  0  0  0  0
   -3.2881   -2.0403   -1.4476 H   0  0  0  0  0  0  0  0  0  0  0  0
    0.8509   -0.6000   -2.1263 H   0  0  0  0  0  0  0  0  0  0  0  0
    1.8561   -2.3602    1.6780 H   0  0  0  0  0  0  0  0  0  0  0  0
   -2.8044   -2.5475    1.4004 H   0  0  0  0  0  0  0  0  0  0  0  0
   -1.4927   -0.9925   -1.7142 H   0  0  0  0  0  0  0  0  0  0  0  0
   -0.5278   -2.7714    2.1189 H   0  0  0  0  0  0  0  0  0  0  0  0
   -5.2275   -2.4971    0.8380 H   0  0  0  0  0  0  0  0  0  0  0  0
   -5.6220   -2.4283   -0.8844 H   0  0  0  0  0  0  0  0  0  0  0  0
   -4.5814   -3.7226   -0.2612 H   0  0  0  0  0  0  0  0  0  0  0  0
   -3.4470   -0.1696    1.7978 H   0  0  0  0  0  0  0  0  0  0  0  0
   -4.4018   -0.1095   -2.4173 H   0  0  0  0  0  0  0  0  0  0  0  0
   -4.8718    2.3100   -2.2565 H   0  0  0  0  0  0  0  0  0  0  0  0
  1 10  1  0  0  0  0
  1 11  1  0  0  0  0
  2 23  1  0  0  0  0
  3 25  1  0  0  0  0
  4  6  1  0  0  0  0
  4  7  1  0  0  0  0
  4  8  1  0  0  0  0
  5 13  1  0  0  0  0
  5 16  1  0  0  0  0
  5 41  1  0  0  0  0
  6  9  1  0  0  0  0
  6 26  1  0  0  0  0
  6 27  1  0  0  0  0
  7 10  1  0  0  0  0
  7 28  1  0  0  0  0
  7 29  1  0  0  0  0
  8 11  1  0  0  0  0
  8 30  1  0  0  0  0
  8 31  1  0  0  0  0
  9 12  1  0  0  0  0
  9 32  1  0  0  0  0
  9 33  1  0  0  0  0
 10 34  1  0  0  0  0
 10 35  1  0  0  0  0
 11 36  1  0  0  0  0
 11 37  1  0  0  0  0
 12 14  2  0  0  0  0
 12 15  1  0  0  0  0
 13 19  1  0  0  0  0
 13 20  1  0  0  0  0
 13 38  1  6  0  0  0
 14 17  1  0  0  0  0
 14 39  1  0  0  0  0
 15 18  2  0  0  0  0
 15 40  1  0  0  0  0
 16 17  2  0  0  0  0
 16 18  1  0  0  0  0
 17 42  1  0  0  0  0
 18 43  1  0  0  0  0
 19 21  2  0  0  0  0
 19 22  1  0  0  0  0
 20 44  1  0  0  0  0
 20 45  1  0  0  0  0
 20 46  1  0  0  0  0
 21 23  1  0  0  0  0
 21 47  1  0  0  0  0
 22 24  2  0  0  0  0
 22 48  1  0  0  0  0
 23 25  2  0  0  0  0
 24 25  1  0  0  0  0
 24 49  1  0  0  0  0
M  END
