57998458
  Mrv15b2304172506223D          

 73 75  0  0  0  0            999 V2000
   -1.0719   -0.6783    1.5370 O   0  0  0  0  0  0  0  0  0  0  0  0
    9.3462   -5.1402    6.6222 O   0  0  0  0  0  0  0  0  0  0  0  0
    3.4536    1.3915   -2.4611 O   0  0  0  0  0  0  0  0  0  0  0  0
    8.3211   -3.2029    7.1403 O   0  0  0  0  0  0  0  0  0  0  0  0
    2.1565   -1.6026    3.4245 N   0  3  2  0  0  0  0  0  0  0  0  0
    3.1113   -2.7096    3.4160 C   0  0  1  0  0  0  0  0  0  0  0  0
    1.1088   -1.8550    2.4365 C   0  0  2  0  0  0  0  0  0  0  0  0
    4.2077   -2.4455    4.4499 C   0  0  2  0  0  0  0  0  0  0  0  0
    2.8495   -0.3587    3.0929 C   0  0  0  0  0  0  0  0  0  0  0  0
    1.5562   -1.4869    4.7525 C   0  0  0  0  0  0  0  0  0  0  0  0
    0.0968   -0.6817    2.4455 C   0  0  2  0  0  0  0  0  0  0  0  0
    5.2070   -3.6040    4.4410 C   0  0  1  0  0  0  0  0  0  0  0  0
   -1.0526   -1.0783    0.0998 C   0  0  2  0  0  0  0  0  0  0  0  0
    6.3034   -3.3399    5.4749 C   0  0  2  0  0  0  0  0  0  0  0  0
    0.1812   -0.4636   -0.5658 C   0  0  0  0  0  0  0  0  0  0  0  0
   -2.3079   -0.5808   -0.6248 C   0  0  0  0  0  0  0  0  0  0  0  0
   -1.1765   -2.5947    0.0191 C   0  0  0  0  0  0  0  0  0  0  0  0
    7.3026   -4.4985    5.4660 C   0  0  1  0  0  0  0  0  0  0  0  0
    0.5638    0.8696   -0.2235 C   0  0  0  0  0  0  0  0  0  0  0  0
    0.9234   -1.0924   -1.6077 C   0  0  0  0  0  0  0  0  0  0  0  0
   -3.5958   -1.0347   -0.2125 C   0  0  0  0  0  0  0  0  0  0  0  0
   -1.3379   -3.3683    1.1972 C   0  0  0  0  0  0  0  0  0  0  0  0
   -2.2865    0.2317   -1.8075 C   0  0  0  0  0  0  0  0  0  0  0  0
   -1.1533   -3.3198   -1.2055 C   0  0  0  0  0  0  0  0  0  0  0  0
    8.3489   -4.2464    6.4526 C   0  0  0  0  0  0  0  0  0  0  0  0
    1.6740    1.4893   -0.8312 C   0  0  0  0  0  0  0  0  0  0  0  0
    1.9806   -0.4572   -2.2599 C   0  0  0  0  0  0  0  0  0  0  0  0
   -4.7689   -0.7029   -0.9191 C   0  0  0  0  0  0  0  0  0  0  0  0
   -0.9825   -4.7215    1.2102 C   0  0  0  0  0  0  0  0  0  0  0  0
   -3.4511    0.5815   -2.5101 C   0  0  0  0  0  0  0  0  0  0  0  0
   -0.8632   -4.6951   -1.2254 C   0  0  0  0  0  0  0  0  0  0  0  0
    2.3770    0.8239   -1.8602 C   0  0  0  0  0  0  0  0  0  0  0  0
   -4.6950    0.1134   -2.0621 C   0  0  0  0  0  0  0  0  0  0  0  0
   -0.7444   -5.3883   -0.0070 C   0  0  0  0  0  0  0  0  0  0  0  0
    3.0246    2.1497   -3.5825 C   0  0  0  0  0  0  0  0  0  0  0  0
    2.5946   -3.6370    3.6632 H   0  0  0  0  0  0  0  0  0  0  0  0
    3.5588   -2.7959    2.4258 H   0  0  0  0  0  0  0  0  0  0  0  0
    0.5921   -2.7824    2.6837 H   0  0  0  0  0  0  0  0  0  0  0  0
    1.5563   -1.9412    1.4463 H   0  0  0  0  0  0  0  0  0  0  0  0
    3.7602   -2.3592    5.4400 H   0  0  0  0  0  0  0  0  0  0  0  0
    4.7244   -1.5181    4.2027 H   0  0  0  0  0  0  0  0  0  0  0  0
    2.1376    0.4667    3.0993 H   0  0  0  0  0  0  0  0  0  0  0  0
    3.2970   -0.4449    2.1027 H   0  0  0  0  0  0  0  0  0  0  0  0
    3.6306   -0.1705    3.8295 H   0  0  0  0  0  0  0  0  0  0  0  0
    0.8443   -0.6615    4.7589 H   0  0  0  0  0  0  0  0  0  0  0  0
    1.0395   -2.4143    4.9998 H   0  0  0  0  0  0  0  0  0  0  0  0
    2.3373   -1.2987    5.4891 H   0  0  0  0  0  0  0  0  0  0  0  0
   -0.2363   -0.4970    3.4668 H   0  0  0  0  0  0  0  0  0  0  0  0
    0.7003    0.1794    2.1585 H   0  0  0  0  0  0  0  0  0  0  0  0
    4.6903   -4.5314    4.6882 H   0  0  0  0  0  0  0  0  0  0  0  0
    5.6545   -3.6903    3.4508 H   0  0  0  0  0  0  0  0  0  0  0  0
    5.8559   -3.2537    6.4651 H   0  0  0  0  0  0  0  0  0  0  0  0
    6.8201   -2.4125    5.2277 H   0  0  0  0  0  0  0  0  0  0  0  0
    6.7859   -5.4258    5.7132 H   0  0  0  0  0  0  0  0  0  0  0  0
    7.7501   -4.5847    4.4758 H   0  0  0  0  0  0  0  0  0  0  0  0
    0.0382    1.4049    0.4774 H   0  0  0  0  0  0  0  0  0  0  0  0
    0.7385   -2.0186   -1.9567 H   0  0  0  0  0  0  0  0  0  0  0  0
   -3.6926   -1.6563    0.5974 H   0  0  0  0  0  0  0  0  0  0  0  0
   -1.6527   -2.9526    2.0739 H   0  0  0  0  0  0  0  0  0  0  0  0
   -1.4218    0.5859   -2.2197 H   0  0  0  0  0  0  0  0  0  0  0  0
   -1.2868   -2.8348   -2.1099 H   0  0  0  0  0  0  0  0  0  0  0  0
    1.9619    2.4278   -0.5126 H   0  0  0  0  0  0  0  0  0  0  0  0
    2.4571   -0.9273   -3.0338 H   0  0  0  0  0  0  0  0  0  0  0  0
   -5.6756   -1.0643   -0.6019 H   0  0  0  0  0  0  0  0  0  0  0  0
   -0.8753   -5.1994    2.1131 H   0  0  0  0  0  0  0  0  0  0  0  0
   -3.3821    1.1746   -3.3465 H   0  0  0  0  0  0  0  0  0  0  0  0
   -0.6657   -5.1584   -2.1110 H   0  0  0  0  0  0  0  0  0  0  0  0
   -5.5432    0.3706   -2.5715 H   0  0  0  0  0  0  0  0  0  0  0  0
   -0.5090   -6.3880    0.0019 H   0  0  0  0  0  0  0  0  0  0  0  0
    9.7730   -5.2377    7.4990 H   0  0  0  0  0  0  0  0  0  0  0  0
    3.8891    2.6056   -4.0650 H   0  0  0  0  0  0  0  0  0  0  0  0
    2.3391    2.9303   -3.2526 H   0  0  0  0  0  0  0  0  0  0  0  0
    2.5164    1.4953   -4.2906 H   0  0  0  0  0  0  0  0  0  0  0  0
  1 11  1  0  0  0  0
  1 13  1  0  0  0  0
  2 25  1  0  0  0  0
  2 70  1  0  0  0  0
  3 32  1  0  0  0  0
  3 35  1  0  0  0  0
  4 25  2  0  0  0  0
  5  6  1  0  0  0  0
  5  7  1  0  0  0  0
  5  9  1  0  0  0  0
  5 10  1  0  0  0  0
  6  8  1  0  0  0  0
  6 36  1  0  0  0  0
  6 37  1  0  0  0  0
  7 11  1  0  0  0  0
  7 38  1  0  0  0  0
  7 39  1  0  0  0  0
  8 12  1  0  0  0  0
  8 40  1  0  0  0  0
  8 41  1  0  0  0  0
  9 42  1  0  0  0  0
  9 43  1  0  0  0  0
  9 44  1  0  0  0  0
 10 45  1  0  0  0  0
 10 46  1  0  0  0  0
 10 47  1  0  0  0  0
 11 48  1  0  0  0  0
 11 49  1  0  0  0  0
 12 14  1  0  0  0  0
 12 50  1  0  0  0  0
 12 51  1  0  0  0  0
 13 15  1  0  0  0  0
 13 16  1  0  0  0  0
 13 17  1  0  0  0  0
 14 18  1  0  0  0  0
 14 52  1  0  0  0  0
 14 53  1  0  0  0  0
 15 19  2  0  0  0  0
 15 20  1  0  0  0  0
 16 21  2  0  0  0  0
 16 23  1  0  0  0  0
 17 22  2  0  0  0  0
 17 24  1  0  0  0  0
 18 25  1  0  0  0  0
 18 54  1  0  0  0  0
 18 55  1  0  0  0  0
 19 26  1  0  0  0  0
 19 56  1  0  0  0  0
 20 27  2  0  0  0  0
 20 57  1  0  0  0  0
 21 28  1  0  0  0  0
 21 58  1  0  0  0  0
 22 29  1  0  0  0  0
 22 59  1  0  0  0  0
 23 30  2  0  0  0  0
 23 60  1  0  0  0  0
 24 31  2  0  0  0  0
 24 61  1  0  0  0  0
 26 32  2  0  0  0  0
 26 62  1  0  0  0  0
 27 32  1  0  0  0  0
 27 63  1  0  0  0  0
 28 33  2  0  0  0  0
 28 64  1  0  0  0  0
 29 34  2  0  0  0  0
 29 65  1  0  0  0  0
 30 33  1  0  0  0  0
 30 66  1  0  0  0  0
 31 34  1  0  0  0  0
 31 67  1  0  0  0  0
 33 68  1  0  0  0  0
 34 69  1  0  0  0  0
 35 71  1  0  0  0  0
 35 72  1  0  0  0  0
 35 73  1  0  0  0  0
M  CHG  1   5   1
M  END
