@<TRIPOS>MOLECULE
lig
 73 75 0 0 0
SMALL
GASTEIGER

@<TRIPOS>ATOM
      1 O          -1.0719   -0.6783    1.5370 O.3     1  UNL11      -0.3543
      2 O           9.3462   -5.1402    6.6222 O.3     1  UNL11      -0.4806
      3 O           3.4536    1.3915   -2.4611 O.2     1  UNL11      -0.4951
      4 O           8.3211   -3.2029    7.1403 O.2     1  UNL11      -0.2510
      5 N           2.1565   -1.6026    3.4245 N.4     1  UNL11       0.2406
      6 C           3.1113   -2.7096    3.4160 C.3     1  UNL11      -0.0305
      7 C           1.1088   -1.8550    2.4365 C.3     1  UNL11      -0.0066
      8 C           4.2077   -2.4455    4.4499 C.3     1  UNL11      -0.0124
      9 C           2.8495   -0.3587    3.0929 C.3     1  UNL11      -0.0415
     10 C           1.5562   -1.4869    4.7525 C.3     1  UNL11      -0.0415
     11 C           0.0968   -0.6817    2.4455 C.3     1  UNL11       0.0896
     12 C           5.2070   -3.6040    4.4410 C.3     1  UNL11      -0.0478
     13 C          -1.0526   -1.0783    0.0998 C.3     1  UNL11       0.1446
     14 C           6.3034   -3.3399    5.4749 C.3     1  UNL11      -0.0428
     15 C           0.1812   -0.4636   -0.5658 C.3     1  UNL11      -0.0068
     16 C          -2.3079   -0.5808   -0.6248 C.3     1  UNL11      -0.0070
     17 C          -1.1765   -2.5947    0.0191 C.3     1  UNL11      -0.0070
     18 C           7.3026   -4.4985    5.4660 C.3     1  UNL11       0.0448
     19 C           0.5638    0.8696   -0.2235 C.3     1  UNL11      -0.0517
     20 C           0.9234   -1.0924   -1.6077 C.3     1  UNL11      -0.0517
     21 C          -3.5958   -1.0347   -0.2125 C.3     1  UNL11      -0.0552
     22 C          -1.3379   -3.3683    1.1972 C.3     1  UNL11      -0.0552
     23 C          -2.2865    0.2317   -1.8075 C.3     1  UNL11      -0.0552
     24 C          -1.1533   -3.3198   -1.2055 C.3     1  UNL11      -0.0552
     25 C           8.3489   -4.2464    6.4526 C.2     1  UNL11       0.3047
     26 C           1.6740    1.4893   -0.8312 C.3     1  UNL11      -0.0196
     27 C           1.9806   -0.4572   -2.2599 C.3     1  UNL11      -0.0196
     28 C          -4.7689   -0.7029   -0.9191 C.3     1  UNL11      -0.0614
     29 C          -0.9825   -4.7215    1.2102 C.3     1  UNL11      -0.0614
     30 C          -3.4511    0.5815   -2.5101 C.3     1  UNL11      -0.0614
     31 C          -0.8632   -4.6951   -1.2254 C.3     1  UNL11      -0.0614
     32 C           2.3770    0.8239   -1.8602 C.3     1  UNL11       0.1201
     33 C          -4.6950    0.1134   -2.0621 C.3     1  UNL11      -0.0617
     34 C          -0.7444   -5.3883   -0.0070 C.3     1  UNL11      -0.0617
     35 C           3.0246    2.1497   -3.5825 C.3     1  UNL11       0.0788
     36 H           2.5946   -3.6370    3.6632 H       1  UNL11       0.0815
     37 H           3.5588   -2.7959    2.4258 H       1  UNL11       0.0815
     38 H           0.5921   -2.7824    2.6837 H       1  UNL11       0.0838
     39 H           1.5563   -1.9412    1.4463 H       1  UNL11       0.0838
     40 H           3.7602   -2.3592    5.4400 H       1  UNL11       0.0317
     41 H           4.7244   -1.5181    4.2027 H       1  UNL11       0.0317
     42 H           2.1376    0.4667    3.0993 H       1  UNL11       0.0778
     43 H           3.2970   -0.4449    2.1027 H       1  UNL11       0.0778
     44 H           3.6306   -0.1705    3.8295 H       1  UNL11       0.0778
     45 H           0.8443   -0.6615    4.7589 H       1  UNL11       0.0778
     46 H           1.0395   -2.4143    4.9998 H       1  UNL11       0.0778
     47 H           2.3373   -1.2987    5.4891 H       1  UNL11       0.0778
     48 H          -0.2363   -0.4970    3.4668 H       1  UNL11       0.0614
     49 H           0.7003    0.1794    2.1585 H       1  UNL11       0.0614
     50 H           4.6903   -4.5314    4.6882 H       1  UNL11       0.0267
     51 H           5.6545   -3.6903    3.4508 H       1  UNL11       0.0267
     52 H           5.8559   -3.2537    6.4651 H       1  UNL11       0.0270
     53 H           6.8201   -2.4125    5.2277 H       1  UNL11       0.0270
     54 H           6.7859   -5.4258    5.7132 H       1  UNL11       0.0377
     55 H           7.7501   -4.5847    4.4758 H       1  UNL11       0.0377
     56 H           0.0382    1.4049    0.4774 H       1  UNL11       0.0623
     57 H           0.7385   -2.0186   -1.9567 H       1  UNL11       0.0623
     58 H          -3.6926   -1.6563    0.5974 H       1  UNL11       0.0621
     59 H          -1.6527   -2.9526    2.0739 H       1  UNL11       0.0621
     60 H          -1.4218    0.5859   -2.2197 H       1  UNL11       0.0621
     61 H          -1.2868   -2.8348   -2.1099 H       1  UNL11       0.0621
     62 H           1.9619    2.4278   -0.5126 H       1  UNL11       0.0654
     63 H           2.4571   -0.9273   -3.0338 H       1  UNL11       0.0654
     64 H          -5.6756   -1.0643   -0.6019 H       1  UNL11       0.0618
     65 H          -0.8753   -5.1994    2.1131 H       1  UNL11       0.0618
     66 H          -3.3821    1.1746   -3.3465 H       1  UNL11       0.0618
     67 H          -0.6657   -5.1584   -2.1110 H       1  UNL11       0.0618
     68 H          -5.5432    0.3706   -2.5715 H       1  UNL11       0.0618
     69 H          -0.5090   -6.3880    0.0019 H       1  UNL11       0.0618
     70 H           9.7730   -5.2377    7.4990 H       1  UNL11       0.2951
     71 H           3.8891    2.6056   -4.0650 H       1  UNL11       0.0660
     72 H           2.3391    2.9303   -3.2526 H       1  UNL11       0.0660
     73 H           2.5164    1.4953   -4.2906 H       1  UNL11       0.0660
@<TRIPOS>UNITY_ATOM_ATTR
5 1
charge 1
@<TRIPOS>BOND
     1     1    11    1
     2     1    13    1
     3     2    25    1
     4     2    70    1
     5     3    32    1
     6     3    35    1
     7     4    25    2
     8     5     6    1
     9     5     7    1
    10     5     9    1
    11     5    10    1
    12     6     8    1
    13     6    36    1
    14     6    37    1
    15     7    11    1
    16     7    38    1
    17     7    39    1
    18     8    12    1
    19     8    40    1
    20     8    41    1
    21     9    42    1
    22     9    43    1
    23     9    44    1
    24    10    45    1
    25    10    46    1
    26    10    47    1
    27    11    48    1
    28    11    49    1
    29    12    14    1
    30    12    50    1
    31    12    51    1
    32    13    15    1
    33    13    16    1
    34    13    17    1
    35    14    18    1
    36    14    52    1
    37    14    53    1
    38    15    19   ar
    39    15    20   ar
    40    16    21   ar
    41    16    23   ar
    42    17    22   ar
    43    17    24   ar
    44    18    25    1
    45    18    54    1
    46    18    55    1
    47    19    26   ar
    48    19    56    1
    49    20    27   ar
    50    20    57    1
    51    21    28   ar
    52    21    58    1
    53    22    29   ar
    54    22    59    1
    55    23    30   ar
    56    23    60    1
    57    24    31   ar
    58    24    61    1
    59    26    32   ar
    60    26    62    1
    61    27    32   ar
    62    27    63    1
    63    28    33   ar
    64    28    64    1
    65    29    34   ar
    66    29    65    1
    67    30    33   ar
    68    30    66    1
    69    31    34   ar
    70    31    67    1
    71    33    68    1
    72    34    69    1
    73    35    71    1
    74    35    72    1
    75    35    73    1
