57998458
  -OEChem-04172506223D

 73 75  0     0  0  0  0  0  0999 V2000
    1.2192    0.3713   -1.5486 O   0  0  0  0  0  0  0  0  0  0  0  0
   -7.3474    1.0434    2.1881 O   0  0  0  0  0  0  0  0  0  0  0  0
    3.4810   -3.8226    2.5330 O   0  0  0  0  0  0  0  0  0  0  0  0
   -6.6858    1.9288    0.2052 O   0  0  0  0  0  0  0  0  0  0  0  0
   -1.0281   -2.4023   -2.6770 N   0  3  0  0  0  0  0  0  0  0  0  0
   -1.8645   -2.4741   -1.4533 C   0  0  0  0  0  0  0  0  0  0  0  0
   -0.2847   -1.0615   -2.7516 C   0  0  0  0  0  0  0  0  0  0  0  0
   -2.9019   -1.3608   -1.4964 C   0  0  0  0  0  0  0  0  0  0  0  0
   -1.8934   -2.5388   -3.9375 C   0  0  0  0  0  0  0  0  0  0  0  0
    0.0158   -3.5276   -2.6909 C   0  0  0  0  0  0  0  0  0  0  0  0
    0.5560   -0.8851   -1.5025 C   0  0  0  0  0  0  0  0  0  0  0  0
   -3.7874   -1.3187   -0.2476 C   0  0  0  0  0  0  0  0  0  0  0  0
    1.6363    0.7886   -0.2558 C   0  0  0  0  0  0  0  0  0  0  0  0
   -4.7840   -0.1540   -0.2519 C   0  0  0  0  0  0  0  0  0  0  0  0
    2.1361   -0.4636    0.4988 C   0  0  0  0  0  0  0  0  0  0  0  0
    0.3769    1.4111    0.3869 C   0  0  0  0  0  0  0  0  0  0  0  0
    2.7405    1.8373   -0.5089 C   0  0  0  0  0  0  0  0  0  0  0  0
   -5.6641   -0.1355    0.9993 C   0  0  0  0  0  0  0  0  0  0  0  0
    1.2678   -1.1681    1.3325 C   0  0  0  0  0  0  0  0  0  0  0  0
    3.4564   -0.8880    0.3482 C   0  0  0  0  0  0  0  0  0  0  0  0
   -0.6467    1.9060   -0.4213 C   0  0  0  0  0  0  0  0  0  0  0  0
    3.2778    2.5564    0.5587 C   0  0  0  0  0  0  0  0  0  0  0  0
    0.2635    1.4785    1.7754 C   0  0  0  0  0  0  0  0  0  0  0  0
    3.2007    2.0659   -1.8056 C   0  0  0  0  0  0  0  0  0  0  0  0
   -6.6023    1.0499    1.0517 C   0  0  0  0  0  0  0  0  0  0  0  0
    1.7195   -2.2971    2.0157 C   0  0  0  0  0  0  0  0  0  0  0  0
    3.9081   -2.0171    1.0313 C   0  0  0  0  0  0  0  0  0  0  0  0
   -1.7837    2.4683    0.1591 C   0  0  0  0  0  0  0  0  0  0  0  0
    4.2755    3.5041    0.3297 C   0  0  0  0  0  0  0  0  0  0  0  0
   -0.8734    2.0407    2.3559 C   0  0  0  0  0  0  0  0  0  0  0  0
    4.1983    3.0135   -2.0348 C   0  0  0  0  0  0  0  0  0  0  0  0
    3.0396   -2.7217    1.8651 C   0  0  0  0  0  0  0  0  0  0  0  0
   -1.8970    2.5356    1.5478 C   0  0  0  0  0  0  0  0  0  0  0  0
    4.7356    3.7327   -0.9671 C   0  0  0  0  0  0  0  0  0  0  0  0
    2.5401   -4.4953    3.3685 C   0  0  0  0  0  0  0  0  0  0  0  0
   -1.2523   -2.4748   -0.5476 H   0  0  0  0  0  0  0  0  0  0  0  0
   -2.3753   -3.4462   -1.4677 H   0  0  0  0  0  0  0  0  0  0  0  0
    0.3582   -1.0887   -3.6413 H   0  0  0  0  0  0  0  0  0  0  0  0
   -0.9867   -0.2399   -2.9203 H   0  0  0  0  0  0  0  0  0  0  0  0
   -3.5773   -1.4738   -2.3503 H   0  0  0  0  0  0  0  0  0  0  0  0
   -2.4433   -0.3728   -1.5701 H   0  0  0  0  0  0  0  0  0  0  0  0
   -2.5568   -3.3998   -3.8149 H   0  0  0  0  0  0  0  0  0  0  0  0
   -1.2239   -2.7002   -4.7888 H   0  0  0  0  0  0  0  0  0  0  0  0
   -2.4563   -1.6173   -4.1052 H   0  0  0  0  0  0  0  0  0  0  0  0
    0.7338   -3.3402   -3.4944 H   0  0  0  0  0  0  0  0  0  0  0  0
   -0.5142   -4.4682   -2.8732 H   0  0  0  0  0  0  0  0  0  0  0  0
    0.5073   -3.5853   -1.7166 H   0  0  0  0  0  0  0  0  0  0  0  0
    1.3057   -1.6772   -1.4520 H   0  0  0  0  0  0  0  0  0  0  0  0
   -0.1286   -0.9001   -0.6621 H   0  0  0  0  0  0  0  0  0  0  0  0
   -3.1491   -1.2377    0.6414 H   0  0  0  0  0  0  0  0  0  0  0  0
   -4.3346   -2.2654   -0.1613 H   0  0  0  0  0  0  0  0  0  0  0  0
   -4.2401    0.7938   -0.3313 H   0  0  0  0  0  0  0  0  0  0  0  0
   -5.4213   -0.2204   -1.1426 H   0  0  0  0  0  0  0  0  0  0  0  0
   -5.0280   -0.0959    1.8910 H   0  0  0  0  0  0  0  0  0  0  0  0
   -6.2684   -1.0487    1.0363 H   0  0  0  0  0  0  0  0  0  0  0  0
    0.2147   -0.9408    1.4558 H   0  0  0  0  0  0  0  0  0  0  0  0
    4.1548   -0.3770   -0.3071 H   0  0  0  0  0  0  0  0  0  0  0  0
   -0.5859    1.8982   -1.5054 H   0  0  0  0  0  0  0  0  0  0  0  0
    2.9501    2.3881    1.5794 H   0  0  0  0  0  0  0  0  0  0  0  0
    1.0599    1.1613    2.4425 H   0  0  0  0  0  0  0  0  0  0  0  0
    2.8223    1.5283   -2.6695 H   0  0  0  0  0  0  0  0  0  0  0  0
    0.9897   -2.8057    2.6364 H   0  0  0  0  0  0  0  0  0  0  0  0
    4.9363   -2.3458    0.9071 H   0  0  0  0  0  0  0  0  0  0  0  0
   -2.5776    2.8603   -0.4698 H   0  0  0  0  0  0  0  0  0  0  0  0
    4.6967    4.0614    1.1614 H   0  0  0  0  0  0  0  0  0  0  0  0
   -0.9562    2.1056    3.4369 H   0  0  0  0  0  0  0  0  0  0  0  0
    4.5587    3.1905   -3.0440 H   0  0  0  0  0  0  0  0  0  0  0  0
   -2.7809    2.9763    1.9994 H   0  0  0  0  0  0  0  0  0  0  0  0
    5.5133    4.4695   -1.1454 H   0  0  0  0  0  0  0  0  0  0  0  0
   -7.9506    1.8157    2.2338 H   0  0  0  0  0  0  0  0  0  0  0  0
    3.0608   -5.3444    3.8231 H   0  0  0  0  0  0  0  0  0  0  0  0
    1.7071   -4.9052    2.7872 H   0  0  0  0  0  0  0  0  0  0  0  0
    2.1986   -3.8538    4.1880 H   0  0  0  0  0  0  0  0  0  0  0  0
  1 11  1  0  0  0  0
  1 13  1  0  0  0  0
  2 25  1  0  0  0  0
  2 70  1  0  0  0  0
  3 32  1  0  0  0  0
  3 35  1  0  0  0  0
  4 25  2  0  0  0  0
  5  6  1  0  0  0  0
  5  7  1  0  0  0  0
  5  9  1  0  0  0  0
  5 10  1  0  0  0  0
  6  8  1  0  0  0  0
  6 36  1  0  0  0  0
  6 37  1  0  0  0  0
  7 11  1  0  0  0  0
  7 38  1  0  0  0  0
  7 39  1  0  0  0  0
  8 12  1  0  0  0  0
  8 40  1  0  0  0  0
  8 41  1  0  0  0  0
  9 42  1  0  0  0  0
  9 43  1  0  0  0  0
  9 44  1  0  0  0  0
 10 45  1  0  0  0  0
 10 46  1  0  0  0  0
 10 47  1  0  0  0  0
 11 48  1  0  0  0  0
 11 49  1  0  0  0  0
 12 14  1  0  0  0  0
 12 50  1  0  0  0  0
 12 51  1  0  0  0  0
 13 15  1  0  0  0  0
 13 16  1  0  0  0  0
 13 17  1  0  0  0  0
 14 18  1  0  0  0  0
 14 52  1  0  0  0  0
 14 53  1  0  0  0  0
 15 19  2  0  0  0  0
 15 20  1  0  0  0  0
 16 21  2  0  0  0  0
 16 23  1  0  0  0  0
 17 22  2  0  0  0  0
 17 24  1  0  0  0  0
 18 25  1  0  0  0  0
 18 54  1  0  0  0  0
 18 55  1  0  0  0  0
 19 26  1  0  0  0  0
 19 56  1  0  0  0  0
 20 27  2  0  0  0  0
 20 57  1  0  0  0  0
 21 28  1  0  0  0  0
 21 58  1  0  0  0  0
 22 29  1  0  0  0  0
 22 59  1  0  0  0  0
 23 30  2  0  0  0  0
 23 60  1  0  0  0  0
 24 31  2  0  0  0  0
 24 61  1  0  0  0  0
 26 32  2  0  0  0  0
 26 62  1  0  0  0  0
 27 32  1  0  0  0  0
 27 63  1  0  0  0  0
 28 33  2  0  0  0  0
 28 64  1  0  0  0  0
 29 34  2  0  0  0  0
 29 65  1  0  0  0  0
 30 33  1  0  0  0  0
 30 66  1  0  0  0  0
 31 34  1  0  0  0  0
 31 67  1  0  0  0  0
 33 68  1  0  0  0  0
 34 69  1  0  0  0  0
 35 71  1  0  0  0  0
 35 72  1  0  0  0  0
 35 73  1  0  0  0  0
M  CHG  1   5   1
M  END
> <PUBCHEM_COMPOUND_CID>
57998458

> <PUBCHEM_CONFORMER_RMSD>
1.2

> <PUBCHEM_CONFORMER_DIVERSEORDER>
2
14
85
18
69
10
58
6
97
67
64
84
34
41
26
32
46
92
29
79
88
91
15
80
76
40
96
53
65
83
28
43
8
57
11
95
81
31
59
90
94
82
48
77
52
50
5
13
21
1
47
44
12
25
36
42
70
35
24
74
66
16
51
33
37
60
89
39
68
87
4
86
73
61
56
27
9
49
17
23
78
7
3
63
30
93
19
45
72
71
22
62
20
75
55
38
54

> <PUBCHEM_MMFF94_PARTIAL_CHARGES>
47
1 -0.56
10 0.5
11 0.28
13 0.71
15 -0.14
16 -0.14
17 -0.14
18 0.06
19 -0.15
2 -0.65
20 -0.15
21 -0.15
22 -0.15
23 -0.15
24 -0.15
25 0.66
26 -0.15
27 -0.15
28 -0.15
29 -0.15
3 -0.36
30 -0.15
31 -0.15
32 0.08
33 -0.15
34 -0.15
35 0.28
4 -0.57
5 -1.01
56 0.15
57 0.15
58 0.15
59 0.15
6 0.5
60 0.15
61 0.15
62 0.15
63 0.15
64 0.15
65 0.15
66 0.15
67 0.15
68 0.15
69 0.15
7 0.5
70 0.5
9 0.5

> <PUBCHEM_EFFECTIVE_ROTOR_COUNT>
14

> <PUBCHEM_PHARMACOPHORE_FEATURES>
10
1 1 acceptor
1 2 acceptor
1 3 acceptor
1 4 acceptor
1 5 cation
3 2 4 25 anion
4 8 12 14 18 hydrophobe
6 15 19 20 26 27 32 rings
6 16 21 23 28 30 33 rings
6 17 22 24 29 31 34 rings

> <PUBCHEM_HEAVY_ATOM_COUNT>
35

> <PUBCHEM_ATOM_DEF_STEREO_COUNT>
0

> <PUBCHEM_ATOM_UDEF_STEREO_COUNT>
0

> <PUBCHEM_BOND_DEF_STEREO_COUNT>
0

> <PUBCHEM_BOND_UDEF_STEREO_COUNT>
0

> <PUBCHEM_ISOTOPIC_ATOM_COUNT>
0

> <PUBCHEM_COMPONENT_COUNT>
1

> <PUBCHEM_CACTVS_TAUTO_COUNT>
1

> <PUBCHEM_CONFORMER_ID>
0374FC7A00000002

> <PUBCHEM_MMFF94_ENERGY>
138.4984

> <PUBCHEM_FEATURE_SELFOVERLAP>
50.805

> <PUBCHEM_SHAPE_FINGERPRINT>
10190108 129 17968105209194058892
11093857 51 17488475082936780007
11421498 54 18047450499159710980
11443803 9 18059306430665197144
11578080 2 16096846722212126436
1200032 147 18199773447369530041
12422481 6 17914045401090963955
133893 2 17822837754997993104
13726171 33 17915477175483311553
14347329 18 17274555320533804799
15219462 58 17605867766107260961
15406563 5 16951129461862453917
19319366 153 18262795297351609947
20511986 3 18342171215394500257
20764821 26 17845351324590917341
21796203 349 18042948910110753282
21927370 108 17899401005810696234
25222932 49 18191320462527191763
57527295 17 17983578800067671564
59755656 520 17825383253107006292

> <PUBCHEM_SHAPE_MULTIPOLES>
691.83
11.3
5.47
3.49
20.51
2.67
-1.13
-8.19
4.2
-5.97
1.48
0.01
4.01
-6.71

> <PUBCHEM_SHAPE_SELFOVERLAP>
1452.939

> <PUBCHEM_SHAPE_VOLUME>
390.1

> <PUBCHEM_COORDINATE_TYPE>
2
5
10

$$$$
