lig
 OpenBabel04172506233D

 73 75  0  0  0  0  0  0  0  0999 V2000
    1.2192    0.3713   -1.5486 O   0  0  0  0  0  0  0  0  0  0  0  0
   -7.3474    1.0434    2.1881 O   0  0  0  0  0  0  0  0  0  0  0  0
    3.4810   -3.8226    2.5330 O   0  0  0  0  0  0  0  0  0  0  0  0
   -6.6858    1.9288    0.2052 O   0  0  0  0  0  0  0  0  0  0  0  0
   -1.0281   -2.4023   -2.6770 N   0  3  0  0  0  0  0  0  0  0  0  0
   -1.8645   -2.4741   -1.4533 C   0  0  0  0  0  0  0  0  0  0  0  0
   -0.2847   -1.0615   -2.7516 C   0  0  0  0  0  0  0  0  0  0  0  0
   -2.9019   -1.3608   -1.4964 C   0  0  0  0  0  0  0  0  0  0  0  0
   -1.8934   -2.5388   -3.9375 C   0  0  0  0  0  0  0  0  0  0  0  0
    0.0158   -3.5276   -2.6909 C   0  0  0  0  0  0  0  0  0  0  0  0
    0.5560   -0.8851   -1.5025 C   0  0  0  0  0  0  0  0  0  0  0  0
   -3.7874   -1.3187   -0.2476 C   0  0  0  0  0  0  0  0  0  0  0  0
    1.6363    0.7886   -0.2558 C   0  0  0  0  0  0  0  0  0  0  0  0
   -4.7840   -0.1540   -0.2519 C   0  0  0  0  0  0  0  0  0  0  0  0
    2.1361   -0.4636    0.4988 C   0  0  0  0  0  0  0  0  0  0  0  0
    0.3769    1.4111    0.3869 C   0  0  0  0  0  0  0  0  0  0  0  0
    2.7405    1.8373   -0.5089 C   0  0  0  0  0  0  0  0  0  0  0  0
   -5.6641   -0.1355    0.9993 C   0  0  0  0  0  0  0  0  0  0  0  0
    1.2678   -1.1681    1.3325 C   0  0  0  0  0  0  0  0  0  0  0  0
    3.4564   -0.8880    0.3482 C   0  0  0  0  0  0  0  0  0  0  0  0
   -0.6467    1.9060   -0.4213 C   0  0  0  0  0  0  0  0  0  0  0  0
    3.2778    2.5564    0.5587 C   0  0  0  0  0  0  0  0  0  0  0  0
    0.2635    1.4785    1.7754 C   0  0  0  0  0  0  0  0  0  0  0  0
    3.2007    2.0659   -1.8056 C   0  0  0  0  0  0  0  0  0  0  0  0
   -6.6023    1.0499    1.0517 C   0  0  0  0  0  0  0  0  0  0  0  0
    1.7195   -2.2971    2.0157 C   0  0  0  0  0  0  0  0  0  0  0  0
    3.9081   -2.0171    1.0313 C   0  0  0  0  0  0  0  0  0  0  0  0
   -1.7837    2.4683    0.1591 C   0  0  0  0  0  0  0  0  0  0  0  0
    4.2755    3.5041    0.3297 C   0  0  0  0  0  0  0  0  0  0  0  0
   -0.8734    2.0407    2.3559 C   0  0  0  0  0  0  0  0  0  0  0  0
    4.1983    3.0135   -2.0348 C   0  0  0  0  0  0  0  0  0  0  0  0
    3.0396   -2.7217    1.8651 C   0  0  0  0  0  0  0  0  0  0  0  0
   -1.8970    2.5356    1.5478 C   0  0  0  0  0  0  0  0  0  0  0  0
    4.7356    3.7327   -0.9671 C   0  0  0  0  0  0  0  0  0  0  0  0
    2.5401   -4.4953    3.3685 C   0  0  0  0  0  0  0  0  0  0  0  0
   -1.2523   -2.4748   -0.5476 H   0  0  0  0  0  0  0  0  0  0  0  0
   -2.3753   -3.4462   -1.4677 H   0  0  0  0  0  0  0  0  0  0  0  0
    0.3582   -1.0887   -3.6413 H   0  0  0  0  0  0  0  0  0  0  0  0
   -0.9867   -0.2399   -2.9203 H   0  0  0  0  0  0  0  0  0  0  0  0
   -3.5773   -1.4738   -2.3503 H   0  0  0  0  0  0  0  0  0  0  0  0
   -2.4433   -0.3728   -1.5701 H   0  0  0  0  0  0  0  0  0  0  0  0
   -2.5568   -3.3998   -3.8149 H   0  0  0  0  0  0  0  0  0  0  0  0
   -1.2239   -2.7002   -4.7888 H   0  0  0  0  0  0  0  0  0  0  0  0
   -2.4563   -1.6173   -4.1052 H   0  0  0  0  0  0  0  0  0  0  0  0
    0.7338   -3.3402   -3.4944 H   0  0  0  0  0  0  0  0  0  0  0  0
   -0.5142   -4.4682   -2.8732 H   0  0  0  0  0  0  0  0  0  0  0  0
    0.5073   -3.5853   -1.7166 H   0  0  0  0  0  0  0  0  0  0  0  0
    1.3057   -1.6772   -1.4520 H   0  0  0  0  0  0  0  0  0  0  0  0
   -0.1286   -0.9001   -0.6621 H   0  0  0  0  0  0  0  0  0  0  0  0
   -3.1491   -1.2377    0.6414 H   0  0  0  0  0  0  0  0  0  0  0  0
   -4.3346   -2.2654   -0.1613 H   0  0  0  0  0  0  0  0  0  0  0  0
   -4.2401    0.7938   -0.3313 H   0  0  0  0  0  0  0  0  0  0  0  0
   -5.4213   -0.2204   -1.1426 H   0  0  0  0  0  0  0  0  0  0  0  0
   -5.0280   -0.0959    1.8910 H   0  0  0  0  0  0  0  0  0  0  0  0
   -6.2684   -1.0487    1.0363 H   0  0  0  0  0  0  0  0  0  0  0  0
    0.2147   -0.9408    1.4558 H   0  0  0  0  0  0  0  0  0  0  0  0
    4.1548   -0.3770   -0.3071 H   0  0  0  0  0  0  0  0  0  0  0  0
   -0.5859    1.8982   -1.5054 H   0  0  0  0  0  0  0  0  0  0  0  0
    2.9501    2.3881    1.5794 H   0  0  0  0  0  0  0  0  0  0  0  0
    1.0599    1.1613    2.4425 H   0  0  0  0  0  0  0  0  0  0  0  0
    2.8223    1.5283   -2.6695 H   0  0  0  0  0  0  0  0  0  0  0  0
    0.9897   -2.8057    2.6364 H   0  0  0  0  0  0  0  0  0  0  0  0
    4.9363   -2.3458    0.9071 H   0  0  0  0  0  0  0  0  0  0  0  0
   -2.5776    2.8603   -0.4698 H   0  0  0  0  0  0  0  0  0  0  0  0
    4.6967    4.0614    1.1614 H   0  0  0  0  0  0  0  0  0  0  0  0
   -0.9562    2.1056    3.4369 H   0  0  0  0  0  0  0  0  0  0  0  0
    4.5587    3.1905   -3.0440 H   0  0  0  0  0  0  0  0  0  0  0  0
   -2.7809    2.9763    1.9994 H   0  0  0  0  0  0  0  0  0  0  0  0
    5.5133    4.4695   -1.1454 H   0  0  0  0  0  0  0  0  0  0  0  0
   -7.9506    1.8157    2.2338 H   0  0  0  0  0  0  0  0  0  0  0  0
    3.0608   -5.3444    3.8231 H   0  0  0  0  0  0  0  0  0  0  0  0
    1.7071   -4.9052    2.7872 H   0  0  0  0  0  0  0  0  0  0  0  0
    2.1986   -3.8538    4.1880 H   0  0  0  0  0  0  0  0  0  0  0  0
  1 11  1  0  0  0  0
  1 13  1  0  0  0  0
  2 25  1  0  0  0  0
  2 70  1  0  0  0  0
  3 32  1  0  0  0  0
  3 35  1  0  0  0  0
  4 25  2  0  0  0  0
  5  6  1  0  0  0  0
  5  7  1  0  0  0  0
  5  9  1  0  0  0  0
  5 10  1  0  0  0  0
  6  8  1  0  0  0  0
  6 36  1  0  0  0  0
  6 37  1  0  0  0  0
  7 11  1  0  0  0  0
  7 38  1  0  0  0  0
  7 39  1  0  0  0  0
  8 12  1  0  0  0  0
  8 40  1  0  0  0  0
  8 41  1  0  0  0  0
  9 42  1  0  0  0  0
  9 43  1  0  0  0  0
  9 44  1  0  0  0  0
 10 45  1  0  0  0  0
 10 46  1  0  0  0  0
 10 47  1  0  0  0  0
 11 48  1  0  0  0  0
 11 49  1  0  0  0  0
 12 14  1  0  0  0  0
 12 50  1  0  0  0  0
 12 51  1  0  0  0  0
 13 15  1  0  0  0  0
 13 16  1  0  0  0  0
 13 17  1  0  0  0  0
 14 18  1  0  0  0  0
 14 52  1  0  0  0  0
 14 53  1  0  0  0  0
 15 19  2  0  0  0  0
 15 20  1  0  0  0  0
 16 21  2  0  0  0  0
 16 23  1  0  0  0  0
 17 22  2  0  0  0  0
 17 24  1  0  0  0  0
 18 25  1  0  0  0  0
 18 54  1  0  0  0  0
 18 55  1  0  0  0  0
 19 26  1  0  0  0  0
 19 56  1  0  0  0  0
 20 27  2  0  0  0  0
 20 57  1  0  0  0  0
 21 28  1  0  0  0  0
 21 58  1  0  0  0  0
 22 29  1  0  0  0  0
 22 59  1  0  0  0  0
 23 30  2  0  0  0  0
 23 60  1  0  0  0  0
 24 31  2  0  0  0  0
 24 61  1  0  0  0  0
 26 32  2  0  0  0  0
 26 62  1  0  0  0  0
 27 32  1  0  0  0  0
 27 63  1  0  0  0  0
 28 33  2  0  0  0  0
 28 64  1  0  0  0  0
 29 34  2  0  0  0  0
 29 65  1  0  0  0  0
 30 33  1  0  0  0  0
 30 66  1  0  0  0  0
 31 34  1  0  0  0  0
 31 67  1  0  0  0  0
 33 68  1  0  0  0  0
 34 69  1  0  0  0  0
 35 71  1  0  0  0  0
 35 72  1  0  0  0  0
 35 73  1  0  0  0  0
M  CHG  1   5   1
M  END
