57998458
  Mrv15b2304172506222D          

 73 75  0  0  0  0            999 V2000
   -0.9264   -0.8331    0.0000 O   0  0  0  0  0  0  0  0  0  0  0  0
    6.2183   -0.0081    0.0000 O   0  0  0  0  0  0  0  0  0  0  0  0
   -4.4988    1.2294    0.0000 O   0  0  0  0  0  0  0  0  0  0  0  0
    5.5038   -1.2456    0.0000 O   0  0  0  0  0  0  0  0  0  0  0  0
    1.2170   -0.4206    0.0000 N   0  3  0  0  0  0  0  0  0  0  0  0
    1.9315   -0.0081    0.0000 C   0  0  0  0  0  0  0  0  0  0  0  0
    0.5025   -0.8331    0.0000 C   0  0  0  0  0  0  0  0  0  0  0  0
    2.6459   -0.4206    0.0000 C   0  0  0  0  0  0  0  0  0  0  0  0
    0.8045    0.2939    0.0000 C   0  0  0  0  0  0  0  0  0  0  0  0
    1.6295   -1.1351    0.0000 C   0  0  0  0  0  0  0  0  0  0  0  0
   -0.2120   -0.4206    0.0000 C   0  0  0  0  0  0  0  0  0  0  0  0
    3.3604   -0.0081    0.0000 C   0  0  0  0  0  0  0  0  0  0  0  0
   -1.6409   -0.4206    0.0000 C   0  0  0  0  0  0  0  0  0  0  0  0
    4.0749   -0.4206    0.0000 C   0  0  0  0  0  0  0  0  0  0  0  0
   -2.3554   -0.0081    0.0000 C   0  0  0  0  0  0  0  0  0  0  0  0
   -1.2284    0.2939    0.0000 C   0  0  0  0  0  0  0  0  0  0  0  0
   -2.0534   -1.1351    0.0000 C   0  0  0  0  0  0  0  0  0  0  0  0
    4.7893   -0.0081    0.0000 C   0  0  0  0  0  0  0  0  0  0  0  0
   -3.0698   -0.4206    0.0000 C   0  0  0  0  0  0  0  0  0  0  0  0
   -2.3554    0.8169    0.0000 C   0  0  0  0  0  0  0  0  0  0  0  0
   -1.6409    1.0083    0.0000 C   0  0  0  0  0  0  0  0  0  0  0  0
   -1.6409   -1.8496    0.0000 C   0  0  0  0  0  0  0  0  0  0  0  0
   -0.4034    0.2939    0.0000 C   0  0  0  0  0  0  0  0  0  0  0  0
   -2.8784   -1.1351    0.0000 C   0  0  0  0  0  0  0  0  0  0  0  0
    5.5038   -0.4206    0.0000 C   0  0  0  0  0  0  0  0  0  0  0  0
   -3.7843   -0.0081    0.0000 C   0  0  0  0  0  0  0  0  0  0  0  0
   -3.0698    1.2294    0.0000 C   0  0  0  0  0  0  0  0  0  0  0  0
   -1.2284    1.7228    0.0000 C   0  0  0  0  0  0  0  0  0  0  0  0
   -2.0534   -2.5640    0.0000 C   0  0  0  0  0  0  0  0  0  0  0  0
    0.0091    1.0083    0.0000 C   0  0  0  0  0  0  0  0  0  0  0  0
   -3.2909   -1.8496    0.0000 C   0  0  0  0  0  0  0  0  0  0  0  0
   -3.7843    0.8169    0.0000 C   0  0  0  0  0  0  0  0  0  0  0  0
   -0.4034    1.7228    0.0000 C   0  0  0  0  0  0  0  0  0  0  0  0
   -2.8784   -2.5640    0.0000 C   0  0  0  0  0  0  0  0  0  0  0  0
   -5.2133    0.8169    0.0000 C   0  0  0  0  0  0  0  0  0  0  0  0
    2.3017    0.7291    0.0000 H   0  0  0  0  0  0  0  0  0  0  0  0
    1.5612    0.7291    0.0000 H   0  0  0  0  0  0  0  0  0  0  0  0
    0.1323   -1.5704    0.0000 H   0  0  0  0  0  0  0  0  0  0  0  0
    0.8728   -1.5704    0.0000 H   0  0  0  0  0  0  0  0  0  0  0  0
    2.2757   -1.1579    0.0000 H   0  0  0  0  0  0  0  0  0  0  0  0
    3.0162   -1.1579    0.0000 H   0  0  0  0  0  0  0  0  0  0  0  0
    0.6978    1.1119    0.0000 H   0  0  0  0  0  0  0  0  0  0  0  0
    0.0078    0.5080    0.0000 H   0  0  0  0  0  0  0  0  0  0  0  0
    0.3020   -0.3605    0.0000 H   0  0  0  0  0  0  0  0  0  0  0  0
    1.4758   -1.9457    0.0000 H   0  0  0  0  0  0  0  0  0  0  0  0
    2.1445   -1.7796    0.0000 H   0  0  0  0  0  0  0  0  0  0  0  0
    2.0545   -0.4280    0.0000 H   0  0  0  0  0  0  0  0  0  0  0  0
   -0.9742   -0.1049    0.0000 H   0  0  0  0  0  0  0  0  0  0  0  0
   -0.2120   -1.2456    0.0000 H   0  0  0  0  0  0  0  0  0  0  0  0
    3.7307    0.7291    0.0000 H   0  0  0  0  0  0  0  0  0  0  0  0
    2.9901    0.7291    0.0000 H   0  0  0  0  0  0  0  0  0  0  0  0
    3.7046   -1.1579    0.0000 H   0  0  0  0  0  0  0  0  0  0  0  0
    4.4451   -1.1579    0.0000 H   0  0  0  0  0  0  0  0  0  0  0  0
    5.1596    0.7291    0.0000 H   0  0  0  0  0  0  0  0  0  0  0  0
    4.4191    0.7291    0.0000 H   0  0  0  0  0  0  0  0  0  0  0  0
   -3.7244   -0.9228    0.0000 H   0  0  0  0  0  0  0  0  0  0  0  0
   -2.2477    1.6348    0.0000 H   0  0  0  0  0  0  0  0  0  0  0  0
   -0.8159    1.0083    0.0000 H   0  0  0  0  0  0  0  0  0  0  0  0
   -0.8159   -1.8496    0.0000 H   0  0  0  0  0  0  0  0  0  0  0  0
    0.4142    0.1838    0.0000 H   0  0  0  0  0  0  0  0  0  0  0  0
   -2.4659   -1.8496    0.0000 H   0  0  0  0  0  0  0  0  0  0  0  0
   -4.6089   -0.0351    0.0000 H   0  0  0  0  0  0  0  0  0  0  0  0
   -3.4587    1.9570    0.0000 H   0  0  0  0  0  0  0  0  0  0  0  0
   -1.6409    2.4373    0.0000 H   0  0  0  0  0  0  0  0  0  0  0  0
   -1.6409   -3.2785    0.0000 H   0  0  0  0  0  0  0  0  0  0  0  0
    0.3672    1.7516    0.0000 H   0  0  0  0  0  0  0  0  0  0  0  0
   -4.1159   -1.8496    0.0000 H   0  0  0  0  0  0  0  0  0  0  0  0
   -0.4188    2.5477    0.0000 H   0  0  0  0  0  0  0  0  0  0  0  0
   -3.2909   -3.2785    0.0000 H   0  0  0  0  0  0  0  0  0  0  0  0
    6.9328   -0.4206    0.0000 H   0  0  0  0  0  0  0  0  0  0  0  0
   -5.6258    1.5314    0.0000 H   0  0  0  0  0  0  0  0  0  0  0  0
   -5.9277    0.4044    0.0000 H   0  0  0  0  0  0  0  0  0  0  0  0
   -4.8008    0.1024    0.0000 H   0  0  0  0  0  0  0  0  0  0  0  0
  1 11  1  0  0  0  0
  1 13  1  0  0  0  0
  2 25  1  0  0  0  0
  2 70  1  0  0  0  0
  3 32  1  0  0  0  0
  3 35  1  0  0  0  0
  4 25  2  0  0  0  0
  5  6  1  0  0  0  0
  5  7  1  0  0  0  0
  5  9  1  0  0  0  0
  5 10  1  0  0  0  0
  6  8  1  0  0  0  0
  6 36  1  0  0  0  0
  6 37  1  0  0  0  0
  7 11  1  0  0  0  0
  7 38  1  0  0  0  0
  7 39  1  0  0  0  0
  8 12  1  0  0  0  0
  8 40  1  0  0  0  0
  8 41  1  0  0  0  0
  9 42  1  0  0  0  0
  9 43  1  0  0  0  0
  9 44  1  0  0  0  0
 10 45  1  0  0  0  0
 10 46  1  0  0  0  0
 10 47  1  0  0  0  0
 11 48  1  0  0  0  0
 11 49  1  0  0  0  0
 12 14  1  0  0  0  0
 12 50  1  0  0  0  0
 12 51  1  0  0  0  0
 13 15  1  0  0  0  0
 13 16  1  0  0  0  0
 13 17  1  0  0  0  0
 14 18  1  0  0  0  0
 14 52  1  0  0  0  0
 14 53  1  0  0  0  0
 15 19  2  3  0  0  0
 15 20  1  0  0  0  0
 16 21  2  3  0  0  0
 16 23  1  0  0  0  0
 17 22  2  0  0  0  0
 17 24  1  0  0  0  0
 18 25  1  0  0  0  0
 18 54  1  0  0  0  0
 18 55  1  0  0  0  0
 19 26  1  0  0  0  0
 19 56  1  0  0  0  0
 20 27  2  0  0  0  0
 20 57  1  0  0  0  0
 21 28  1  0  0  0  0
 21 58  1  0  0  0  0
 22 29  1  0  0  0  0
 22 59  1  0  0  0  0
 23 30  2  3  0  0  0
 23 60  1  0  0  0  0
 24 31  2  3  0  0  0
 24 61  1  0  0  0  0
 26 32  2  0  0  0  0
 26 62  1  0  0  0  0
 27 32  1  0  0  0  0
 27 63  1  0  0  0  0
 28 33  2  0  0  0  0
 28 64  1  0  0  0  0
 29 34  2  0  0  0  0
 29 65  1  0  0  0  0
 30 33  1  0  0  0  0
 30 66  1  0  0  0  0
 31 34  1  0  0  0  0
 31 67  1  0  0  0  0
 33 68  1  0  0  0  0
 34 69  1  0  0  0  0
 35 71  1  0  0  0  0
 35 72  1  0  0  0  0
 35 73  1  0  0  0  0
M  CHG  1   5   1
M  END
