87577151
  -OEChem-04172510342D

 70 72  0     1  0  0  0  0  0999 V2000
    6.3301    3.0000    0.0000 O   0  0  0  0  0  0  0  0  0  0  0  0
    3.7320   -0.5000    0.0000 O   0  0  0  0  0  0  0  0  0  0  0  0
    4.5981   -2.0000    0.0000 O   0  0  0  0  0  0  0  0  0  0  0  0
   11.5923    0.9758    0.0000 O   0  0  0  0  0  0  0  0  0  0  0  0
    6.3301    1.0000    0.0000 N   0  3  0  0  0  0  0  0  0  0  0  0
    7.1962    1.5000    0.0000 C   0  0  2  0  0  0  0  0  0  0  0  0
    7.1962    2.5000    0.0000 C   0  0  2  0  0  0  0  0  0  0  0  0
    5.4641    0.5000    0.0000 C   0  0  0  0  0  0  0  0  0  0  0  0
    8.0622    1.0000    0.0000 C   0  0  0  0  0  0  0  0  0  0  0  0
    6.8301    0.1340    0.0000 C   0  0  0  0  0  0  0  0  0  0  0  0
    5.8301    1.8660    0.0000 C   0  0  0  0  0  0  0  0  0  0  0  0
    8.0622    3.0000    0.0000 C   0  0  0  0  0  0  0  0  0  0  0  0
    5.4641   -0.5000    0.0000 C   0  0  3  0  0  0  0  0  0  0  0  0
    8.9282    1.5000    0.0000 C   0  0  0  0  0  0  0  0  0  0  0  0
    8.9282    2.5000    0.0000 C   0  0  0  0  0  0  0  0  0  0  0  0
    7.8301    0.1340    0.0000 C   0  0  0  0  0  0  0  0  0  0  0  0
    4.8301    1.8660    0.0000 C   0  0  0  0  0  0  0  0  0  0  0  0
    6.3301   -1.0000    0.0000 C   0  0  0  0  0  0  0  0  0  0  0  0
    9.8222    0.9653    0.0000 C   0  0  0  0  0  0  0  0  0  0  0  0
    4.5981   -1.0000    0.0000 C   0  0  0  0  0  0  0  0  0  0  0  0
    9.8222    3.0347    0.0000 C   0  0  0  0  0  0  0  0  0  0  0  0
    6.3301   -2.0000    0.0000 C   0  0  0  0  0  0  0  0  0  0  0  0
    6.3301    4.0000    0.0000 C   0  0  0  0  0  0  0  0  0  0  0  0
   10.7282    1.4792    0.0000 C   0  0  0  0  0  0  0  0  0  0  0  0
   10.7282    2.5208    0.0000 C   0  0  0  0  0  0  0  0  0  0  0  0
    7.1962   -2.5000    0.0000 C   0  0  0  0  0  0  0  0  0  0  0  0
    5.4641   -2.5000    0.0000 C   0  0  0  0  0  0  0  0  0  0  0  0
    2.8660   -1.0000    0.0000 C   0  0  0  0  0  0  0  0  0  0  0  0
    7.1962   -3.5000    0.0000 C   0  0  0  0  0  0  0  0  0  0  0  0
    5.4641   -3.5000    0.0000 C   0  0  0  0  0  0  0  0  0  0  0  0
    6.3301   -4.0000    0.0000 C   0  0  0  0  0  0  0  0  0  0  0  0
    2.0000   -0.5000    0.0000 C   0  0  0  0  0  0  0  0  0  0  0  0
    7.1962    0.8800    0.0000 H   0  0  0  0  0  0  0  0  0  0  0  0
    6.6592    2.1900    0.0000 H   0  0  0  0  0  0  0  0  0  0  0  0
    5.2520    1.0826    0.0000 H   0  0  0  0  0  0  0  0  0  0  0  0
    4.8535    0.3923    0.0000 H   0  0  0  0  0  0  0  0  0  0  0  0
    7.6636    0.5251    0.0000 H   0  0  0  0  0  0  0  0  0  0  0  0
    8.4607    0.5251    0.0000 H   0  0  0  0  0  0  0  0  0  0  0  0
    6.2475   -0.0781    0.0000 H   0  0  0  0  0  0  0  0  0  0  0  0
    6.9378   -0.4766    0.0000 H   0  0  0  0  0  0  0  0  0  0  0  0
    6.4127    2.0781    0.0000 H   0  0  0  0  0  0  0  0  0  0  0  0
    5.7225    2.4766    0.0000 H   0  0  0  0  0  0  0  0  0  0  0  0
    8.4607    3.4750    0.0000 H   0  0  0  0  0  0  0  0  0  0  0  0
    7.6636    3.4750    0.0000 H   0  0  0  0  0  0  0  0  0  0  0  0
    5.4641   -1.1200    0.0000 H   0  0  0  0  0  0  0  0  0  0  0  0
    7.8301   -0.4860    0.0000 H   0  0  0  0  0  0  0  0  0  0  0  0
    8.4501    0.1340    0.0000 H   0  0  0  0  0  0  0  0  0  0  0  0
    7.8301    0.7540    0.0000 H   0  0  0  0  0  0  0  0  0  0  0  0
    4.8301    2.4860    0.0000 H   0  0  0  0  0  0  0  0  0  0  0  0
    4.2101    1.8660    0.0000 H   0  0  0  0  0  0  0  0  0  0  0  0
    4.8301    1.2460    0.0000 H   0  0  0  0  0  0  0  0  0  0  0  0
    6.9407   -1.1077    0.0000 H   0  0  0  0  0  0  0  0  0  0  0  0
    6.5422   -0.4174    0.0000 H   0  0  0  0  0  0  0  0  0  0  0  0
    9.8150    0.3454    0.0000 H   0  0  0  0  0  0  0  0  0  0  0  0
    9.8150    3.6546    0.0000 H   0  0  0  0  0  0  0  0  0  0  0  0
    6.9501    4.0000    0.0000 H   0  0  0  0  0  0  0  0  0  0  0  0
    6.3301    4.6200    0.0000 H   0  0  0  0  0  0  0  0  0  0  0  0
    5.7101    4.0000    0.0000 H   0  0  0  0  0  0  0  0  0  0  0  0
   11.2639    2.8329    0.0000 H   0  0  0  0  0  0  0  0  0  0  0  0
    7.7331   -2.1900    0.0000 H   0  0  0  0  0  0  0  0  0  0  0  0
    4.9272   -2.1900    0.0000 H   0  0  0  0  0  0  0  0  0  0  0  0
    2.4675   -1.4750    0.0000 H   0  0  0  0  0  0  0  0  0  0  0  0
    3.2646   -1.4750    0.0000 H   0  0  0  0  0  0  0  0  0  0  0  0
   12.1304    1.2838    0.0000 H   0  0  0  0  0  0  0  0  0  0  0  0
    7.7331   -3.8100    0.0000 H   0  0  0  0  0  0  0  0  0  0  0  0
    4.9272   -3.8100    0.0000 H   0  0  0  0  0  0  0  0  0  0  0  0
    6.3301   -4.6200    0.0000 H   0  0  0  0  0  0  0  0  0  0  0  0
    2.3100    0.0369    0.0000 H   0  0  0  0  0  0  0  0  0  0  0  0
    1.4631   -0.1900    0.0000 H   0  0  0  0  0  0  0  0  0  0  0  0
    1.6900   -1.0369    0.0000 H   0  0  0  0  0  0  0  0  0  0  0  0
  7  1  1  1  0  0  0
  1 23  1  0  0  0  0
  2 20  1  0  0  0  0
  2 28  1  0  0  0  0
  3 20  2  0  0  0  0
  4 24  1  0  0  0  0
  4 64  1  0  0  0  0
  6  5  1  6  0  0  0
  5  8  1  0  0  0  0
  5 10  1  0  0  0  0
  5 11  1  0  0  0  0
  6  7  1  0  0  0  0
  6  9  1  0  0  0  0
  6 33  1  0  0  0  0
  7 12  1  0  0  0  0
  7 34  1  0  0  0  0
  8 13  1  0  0  0  0
  8 35  1  0  0  0  0
  8 36  1  0  0  0  0
  9 14  1  0  0  0  0
  9 37  1  0  0  0  0
  9 38  1  0  0  0  0
 10 16  1  0  0  0  0
 10 39  1  0  0  0  0
 10 40  1  0  0  0  0
 11 17  1  0  0  0  0
 11 41  1  0  0  0  0
 11 42  1  0  0  0  0
 12 15  1  0  0  0  0
 12 43  1  0  0  0  0
 12 44  1  0  0  0  0
 13 18  1  0  0  0  0
 13 20  1  0  0  0  0
 13 45  1  0  0  0  0
 14 15  2  0  0  0  0
 14 19  1  0  0  0  0
 15 21  1  0  0  0  0
 16 46  1  0  0  0  0
 16 47  1  0  0  0  0
 16 48  1  0  0  0  0
 17 49  1  0  0  0  0
 17 50  1  0  0  0  0
 17 51  1  0  0  0  0
 18 22  1  0  0  0  0
 18 52  1  0  0  0  0
 18 53  1  0  0  0  0
 19 24  2  0  0  0  0
 19 54  1  0  0  0  0
 21 25  2  0  0  0  0
 21 55  1  0  0  0  0
 22 26  2  0  0  0  0
 22 27  1  0  0  0  0
 23 56  1  0  0  0  0
 23 57  1  0  0  0  0
 23 58  1  0  0  0  0
 24 25  1  0  0  0  0
 25 59  1  0  0  0  0
 26 29  1  0  0  0  0
 26 60  1  0  0  0  0
 27 30  2  0  0  0  0
 27 61  1  0  0  0  0
 28 32  1  0  0  0  0
 28 62  1  0  0  0  0
 28 63  1  0  0  0  0
 29 31  2  0  0  0  0
 29 65  1  0  0  0  0
 30 31  1  0  0  0  0
 30 66  1  0  0  0  0
 31 67  1  0  0  0  0
 32 68  1  0  0  0  0
 32 69  1  0  0  0  0
 32 70  1  0  0  0  0
M  CHG  1   5   1
M  END
> <PUBCHEM_COMPOUND_CID>
87577151

> <PUBCHEM_COMPOUND_CANONICALIZED>
1

> <PUBCHEM_CACTVS_COMPLEXITY>
572

> <PUBCHEM_CACTVS_HBOND_ACCEPTOR>
4

> <PUBCHEM_CACTVS_HBOND_DONOR>
1

> <PUBCHEM_CACTVS_ROTATABLE_BOND>
11

> <PUBCHEM_CACTVS_SUBSKEYS>
AAADcfB6OAAAAAAAAAAAAAAAAAAAAAAAAAAwYMAAAAAAAADBQAAAHgAACAAADTzhmAYyDoMABgCIAiDSCAACAAAgIAAIiAEOCIgKJjqCkROHcAAmwBGYmAeY2POOoAABAAAQAABQAAKAACAgAAAAAAAAAA==

> <PUBCHEM_IUPAC_OPENEYE_NAME>
(2-benzyl-3-ethoxy-3-oxo-propyl)-diethyl-[(2S,3S)-7-hydroxy-3-methoxy-tetralin-2-yl]ammonium

> <PUBCHEM_IUPAC_CAS_NAME>
[3-ethoxy-3-oxo-2-(phenylmethyl)propyl]-diethyl-[(2S,3S)-7-hydroxy-3-methoxy-1,2,3,4-tetrahydronaphthalen-2-yl]ammonium

> <PUBCHEM_IUPAC_NAME_MARKUP>
(2-benzyl-3-ethoxy-3-oxopropyl)-diethyl-[(2<I>S</I>,3<I>S</I>)-7-hydroxy-3-methoxy-1,2,3,4-tetrahydronaphthalen-2-yl]azanium

> <PUBCHEM_IUPAC_NAME>
(2-benzyl-3-ethoxy-3-oxopropyl)-diethyl-[(2S,3S)-7-hydroxy-3-methoxy-1,2,3,4-tetrahydronaphthalen-2-yl]azanium

> <PUBCHEM_IUPAC_SYSTEMATIC_NAME>
[3-ethoxy-3-oxidanylidene-2-(phenylmethyl)propyl]-diethyl-[(2S,3S)-3-methoxy-7-oxidanyl-1,2,3,4-tetrahydronaphthalen-2-yl]azanium

> <PUBCHEM_IUPAC_TRADITIONAL_NAME>
(2-benzyl-3-ethoxy-3-keto-propyl)-diethyl-[(2S,3S)-7-hydroxy-3-methoxy-tetralin-2-yl]ammonium

> <PUBCHEM_IUPAC_INCHI>
InChI=1S/C27H37NO4/c1-5-28(6-2,19-23(27(30)32-7-3)15-20-11-9-8-10-12-20)25-17-22-16-24(29)14-13-21(22)18-26(25)31-4/h8-14,16,23,25-26H,5-7,15,17-19H2,1-4H3/p+1/t23?,25-,26-/m0/s1

> <PUBCHEM_IUPAC_INCHIKEY>
VJZLDUCUYCHRDM-HUASTKEASA-O

> <PUBCHEM_XLOGP3_AA>
4.8

> <PUBCHEM_EXACT_MASS>
440.28008369

> <PUBCHEM_MOLECULAR_FORMULA>
C27H38NO4+

> <PUBCHEM_MOLECULAR_WEIGHT>
440.6

> <PUBCHEM_SMILES>
CC[N+](CC)(CC(CC1=CC=CC=C1)C(=O)OCC)[C@H]2CC3=C(C[C@@H]2OC)C=CC(=C3)O

> <PUBCHEM_OPENEYE_CAN_SMILES>
CC[N+](CC)(CC(CC1=CC=CC=C1)C(=O)OCC)C2CC3=C(CC2OC)C=CC(=C3)O

> <PUBCHEM_OPENEYE_ISO_SMILES>
CC[N+](CC)(CC(CC1=CC=CC=C1)C(=O)OCC)[C@H]2CC3=C(C[C@@H]2OC)C=CC(=C3)O

> <PUBCHEM_CACTVS_TPSA>
55.8

> <PUBCHEM_MONOISOTOPIC_WEIGHT>
440.28008369

> <PUBCHEM_TOTAL_CHARGE>
1

> <PUBCHEM_HEAVY_ATOM_COUNT>
32

> <PUBCHEM_ATOM_DEF_STEREO_COUNT>
2

> <PUBCHEM_ATOM_UDEF_STEREO_COUNT>
1

> <PUBCHEM_BOND_DEF_STEREO_COUNT>
0

> <PUBCHEM_BOND_UDEF_STEREO_COUNT>
0

> <PUBCHEM_ISOTOPIC_ATOM_COUNT>
0

> <PUBCHEM_COMPONENT_COUNT>
1

> <PUBCHEM_CACTVS_TAUTO_COUNT>
-1

> <PUBCHEM_COORDINATE_TYPE>
1
5
255

> <PUBCHEM_BONDANNOTATIONS>
7  1  5
13  18  3
14  15  8
14  19  8
15  21  8
19  24  8
21  25  8
22  26  8
22  27  8
24  25  8
26  29  8
27  30  8
29  31  8
30  31  8
6  5  6

$$$$
